[TITLE]
DESCRIPTION


[JUNCTIONS]
;id elevation demand demandpattern
10141613 364.339996 0.0 ; AB 
 10446399 359.440002 0.0 ; AB 
 10459656 361.640015 0.0 ; AB 
 10666429 361.890015 0.0 ; AB 
 10673702 357.640015 0.3195581073855259 ; AB 
 11356917 346.317993 0.0 ; AB 
 11357532 347.929993 0.771922478344253 ; AB 
 11357569 350.268005 0.116069 ; AB 
 11357691 348.429993 0.27971444126261985 ; AB 
 11357700 348.540009 0.2623901174014984 ; AB 
 11357806 348.529999 1.0058201095280368 ; AB 
 11357843 346.950012 0.5552094976683508 ; AB 
 11357847 346.649994 0.072939 ; AB 
 11357973 349.76001 0.1567943364524501 ; AB 
 11358114 347.809998 0.33872913470710336 ; AB 
 11358128 347.929993 0.002471008739158488 ; AB 
 11358174 347.02301 0.13669210611452487 ; AB 
 11358221 347.871002 0.3978332047275978 ; AB 
 11358472 346.321014 0.4919181298856718 ; AB 
 11358508 347.799011 0.0 ; AB 
 11358604 345.957001 0.0 ; AB 
 11358665 347.440002 0.465133 ; STS 
 11857246 359.984985 0.15454369725695397 ; AB 
 11857514 355.024994 0.0 ; AB 
 11857518 355.011993 0.0 ; AB 
 11857522 355.006012 0.1330589695237433 ; AB 
 11857727 364.681 0.3955362359689103 ; AB 
 11879947 368.744995 0.2019185459325371 ; AB 
 11880038 369.5 0.10996471421961215 ; ABS 
 11880043 369.5 0.45112121809855255 ; AB 
 11880144 362.967987 0.14827606724912026 ; AB 
 11880188 362.739014 0.0 ; AB 
 11880263 361.459991 0.0 ; ABS 
 11880357 349.540009 0.251197 ; AB 
 11880840 348.761993 0.4668507880055344 ; AB 
 11881181 352.777008 0.12591574566870756 ; AB 
 11881210 350.968994 0.01139600416767687 ; AB 
 11881234 350.824005 0.4074635502547287 ; AB 
 11881395 349.450012 0.0016420501332105606 ; AB 
 11881415 349.359985 1.3717312645513093 ; AB 
 11906687 363.100006 0.09448871338934134 ; AB 
 11906985 363.856995 0.8728021976424332 ; AB 
 11907198 363.890991 0.2413952562959487 ; AB 
 11907563 364.208008 0.0 ; AB 
 11907567 364.320007 3.560544 ; AB 
 11907585 363.144989 0.15815046684339432 ; AB 
 11907770 363.839996 0.055133 ; AB 
 11908021 363.579987 0.9802030033388649 ; AB 
 11908038 363.980011 0.9954425263761495 ; AB 
 11908042 363.980011 0.0 ; ABS 
 11908120 366.071991 0.2629683762006458 ; AB 
 11927161 358.600006 0.318728 ; AB 
 11927165 362.130005 0.0 ; AB 
 11927187 362.130005 0.539379364529736 ; ABS 
 11927431 358.355988 0.7812441107412805 ; AB 
 11927833 361.589996 0.23585542546014063 ; AB 
 11927837 361.619995 0.04922053462392531 ; AB 
 11927878 361.540985 0.4533511506080982 ; AB 
 11928071 360.112 0.2554103770448042 ; AB 
 11928154 352.127991 0.15966143399672642 ; AB 
 11928158 351.339996 0.32415111655818885 ; AB 
 11928176 351.079987 0.0 ; AB 
 11960447 348.933014 0.0 ; ABS 
 11960452 348.933014 0.0 ; AB 
 11960456 348.929993 0.0 ; ABS 
 11960514 348.596008 0.44870129108922646 ; AB 
 11960689 348.835999 0.4403566198103093 ; AB 
 11960703 347.665009 0.0 ; AB 
 11960707 347.665009 0.0 ; ABS 
 11960892 349.079987 0.991920922798468 ; AB 
 11960951 348.589996 0.647552077201532 ; STS 
 11961053 347.54599 0.191382 ; AB 
 11961147 348.880005 0.000989 ; AB 
 11961196 348.575989 0.5292803025103635 ; AB 
 11961258 348.686005 0.2014699890090708 ; AB 
 11961280 348.725006 0.28894386863288646 ; AB 
 11961438 348.589996 0.0616563008782506 ; AB 
 11961442 348.589996 0.239524 ; ABS 
 11961533 348.869995 0.0 ; AB 
 11961542 348.859985 0.0 ; AB 
 11961757 349.269989 0.14077765340490683 ; AB 
 11961766 349.415009 0.5129194505673755 ; AB 
 11961840 350.419006 0.46218166735521604 ; AB 
 11961853 348.343994 0.4974923542411143 ; AB 
 11961996 348.954987 0.07906432090856294 ; AB 
 11962267 348.47699 0.0 ; AB 
 11962283 348.598999 0.11815836197821766 ; AB 
 11962296 348.570007 0.0 ; AB 
 11962305 348.45401 0.27031219631305253 ; AB 
 11962558 349.996002 0.7418861726486987 ; AB 
 11962681 350.050995 0.044762780709295395 ; STS 
 11962789 348.279999 0.129193 ; ABS 
 11962794 348.279999 0.02038566501133589 ; AB 
 11962811 348.660004 0.0 ; ABS 
 11962816 348.660004 0.0 ; AB 
 11962820 349.089996 0.6728096991217494 ; AB 
 11962829 349.089996 0.0 ; AB 
 11962833 349.089996 0.07319025356163321 ; ABS 
 11962838 349.709991 0.017147 ; AB 
 11962842 349.709991 0.569067 ; AB 
 11962856 349.709991 0.223894 ; AB 
 11962875 350.549988 0.5424364272958345 ; AB 
 11962973 351.375 0.1046951000715755 ; STS 
 11963049 351.350006 0.0 ; STS 
 12001747 358.160004 0.21612452914057612 ; AB 
 12001868 351.19101 0.18405564469832109 ; AB 
 12001877 351.213989 0.4959358555066013 ; AB 
 12001919 352.438995 0.0 ; AB 
 12002005 352.694 0.19619599999999998 ; AB 
 12002117 357.170013 0.0776660045565025 ; AB 
 12002220 354.73999 0.05250199818026707 ; AB 
 12002256 356.679993 0.0 ; ABS 
 12002559 360.27301 0.7566485328526358 ; AB 
 12002599 361.470001 0.131237 ; AB 
 12002622 361.470001 0.17774870275276217 ; ABS 
 12002667 360.244995 0.15395655615840806 ; AB 
 12002676 360.244995 0.34177965450304465 ; AB 
 12002699 360.328003 0.09549820678031751 ; AB 
 12002721 359.899994 0.2390142377882641 ; AB 
 12002783 356.809998 0.41739738362997814 ; AB 
 12002797 357.119995 0.011299957433612829 ; AB 
 12003240 350.516998 0.02644844484050293 ; AB 
 12003331 351.480011 1.0797359705203358 ; AB 
 12003379 350.559998 0.12464228011241381 ; STS 
 12003415 354.802002 0.005738621592930578 ; ABS 
 12003420 354.733002 0.0 ; AB 
 12003434 354.875 0.005610507176292266 ; AB 
 12003438 354.875 0.0 ; ABS 
 12003443 354.875 0.11840675231150596 ; AB 
 12003554 353.079987 0.4824350199821617 ; AB 
 12003563 353.98999 0.5222769650691823 ; AB 
 12003664 354.755005 0.10279969875891176 ; AB 
 12003673 354.862 0.1319491650517411 ; AB 
 12003695 354.660004 0.31641840004646055 ; AB 
 12003921 352.709991 0.029281 ; AB 
 12042741 350.371002 0.583839 ; AB 
 12043003 347.529999 0.406109 ; AB 
 12043452 347.859985 0.096944 ; ABS 
 12043798 353.029999 0.0 ; AB 
 12044074 349.630005 0.06456794815050171 ; AB 
 12062415 357.204987 0.5656480105410615 ; AB 
 12062486 356.660004 0.24382561387956386 ; AB 
 12062549 361.140015 0.0 ; AB 
 12062553 361.140015 0.26712502605526856 ; ABS 
 12062627 362.269989 0.7642784135190175 ; AB 
 12062667 360.970001 0.29841176337141384 ; AB 
 12075495 362.519989 0.027812442050379103 ; AB 
 12075562 362.920013 0.017128902110255324 ; AB 
 12075581 363.170013 0.28858085845348064 ; AB 
 12075878 366.299988 0.407257905385492 ; AB 
 12075882 366.299988 0.05911221997797151 ; ABS 
 12075989 366.049988 0.0 ; AB 
 12498991 368.959991 0.17943500577337937 ; AB 
 12499009 367.860992 5.1621596226334464e-05 ; AB 
 12499013 367.709991 0.102154 ; AB 
 12499022 372.359985 0.1286901855629899 ; AB 
 12499140 368.23999 0.0 ; AB 
 12499274 365.881989 0.4670257551429203 ; AB 
 12499449 363.033997 0.0027323635842066546 ; AB 
 12499477 364.178009 0.7354236327179206 ; AB 
 12499575 361.959991 0.266497 ; AB 
 12499685 366.059998 0.2103990077794121 ; AB 
 12499736 367.140991 0.0712513458987985 ; AB 
 12499774 367.585999 6.000809578994741e-05 ; AB 
 12499803 367.56601 0.22624534389791756 ; AB 
 12499863 367.678986 0.28548050203499475 ; AB 
 12499906 369.260986 0.06813683319001371 ; AB 
 12499923 369.429993 0.419497 ; AB 
 12500124 367.540009 0.12484821526905651 ; AB 
 12551464 361.640015 0.2788980036978729 ; AB 
 12551468 361.640015 0.0 ; ABS 
 12551622 362.589996 0.03877553420297875 ; AB 
 12551756 364.580994 0.27680744693554643 ; AB 
 12551859 366.156006 0.8649692039170767 ; STS 
 12552128 361.632996 0.03544917443864366 ; AB 
 12552211 361.347992 0.23837778153645114 ; AB 
 12552361 362.700012 0.005454065851486252 ; ABS 
 12552637 361.630005 0.0 ; STS 
 12552685 360.910004 0.19804944708061006 ; AB 
 12552708 362.544006 0.17764588032450768 ; AB 
 12569759 369.872986 0.003282574167408772 ; AB 
 12569830 369.993011 0.39641316454158065 ; AB 
 12570276 367.679993 0.5900139922205878 ; AB 
 12570280 367.679993 0.0 ; SES 
 12570299 366.73999 0.082567 ; AB 
 12587228 381.809998 0.0 ; STS 
 12606857 366.819 0.021816046301407058 ; AB 
 12606861 366.819 0.0 ; AB 
 12606883 366.787994 0.047258244846258415 ; AB 
 12714684 358.700012 0.666411683629289 ; AB 
 12714895 362.700012 0.19930153236072695 ; AB 
 12714965 363.079987 0.015005393869167764 ; AB 
 12715079 358.700012 0.35200973635904154 ; AB 
 12715111 361.369995 0.09034515848341261 ; AB 
 12715125 361.390015 0.20847043475407834 ; AB 
 12715495 363.929993 0.0009939460488475574 ; AB 
 12715499 363.929993 0.0018571265744002244 ; AB 
 12715517 363.880005 0.019521 ; AB 
 12715539 364.329987 0.0002049141475997923 ; AB 
 12715632 363.640015 0.0 ; AB 
 12715636 363.640015 0.7830812878839244 ; ABS 
 12715698 360.589996 0.007932323837682996 ; ABS 
 12715848 360.786987 0.07129 ; AB 
 12715985 360.609985 0.0 ; AB 
 12715989 360.609985 0.17791104357752213 ; ABS 
 12716007 360.009003 0.123653 ; AB 
 12716011 360.009003 0.1610619564224779 ; ABS 
 12716016 360.131012 0.09742318902417002 ; AB 
 12716087 360.471985 0.0 ; AB 
 12716091 360.471985 0.0 ; ABS 
 12716383 361.450012 0.09358446253584046 ; AB 
 12716410 361.730011 0.05763155291938993 ; AB 
 12716451 360.01001 0.0 ; AB 
 12716620 357.299988 0.0683928676955524 ; STS 
 12744283 370.730011 0.03453686987707257 ; AB 
 12744417 370.480011 0.025740130122927425 ; AB 
 12744491 369.17099 0.054262472864827604 ; AB 
 12744715 366.255005 0.018927 ; AB 
 12744728 365.729004 0.048736 ; AB 
 12744864 364.980011 0.653744 ; AB 
 12744868 364.980011 0.0034188734255997757 ; AB 
 12744957 364.302002 0.16535651798962903 ; AB 
 12744999 362.839996 0.27665864217945946 ; AB 
 12745099 362.76001 0.019947390295039776 ; AB 
 12745141 364.100006 0.07000121872748309 ; AB 
 12745188 363.649994 0.2133100624936003 ; AB 
 12745197 364.26001 0.21603908585240023 ; AB 
 12745224 371.149994 0.0 ; AB 
 13040768 355.049988 0.4751659638924312 ; AB 
 13040830 354.679993 0.011013 ; STS 
 13040881 355.019989 0.010155905838178261 ; AB 
 13040975 354.76001 0.7150573458608724 ; AB 
 13042359 356.369995 0.0 ; AB 
 13042398 356.585999 0.0 ; AB 
 13042420 356.369995 0.3326008301101959 ; AB 
 13042448 357.174011 1.2371549385732905 ; AB 
 13042728 354.070007 0.04137237122893148 ; AB 
 13042869 356.964996 0.3504341920492396 ; STS 
 13143556 350.5 0.010134058230076714 ; STS 
 13336738 358.339996 0.0 ; AB 
 13336775 358.390015 0.0 ; AB 
 13336793 358.329987 0.0 ; AB 
 13356223 362.420013 0.18030833391459794 ; AB 
 13356310 363.709991 0.29528374676595065 ; AB 
 13364506 386.380005 0.0 ; AB 
 13364624 385.540009 0.025261241270505053 ; AB 
 13383061 368.660004 0.0 ; AB 
 13383069 368.660004 0.0 ; AB 
 13656901 358.519989 0.0 ; ABS 
 13775996 371.309998 0.4589485883897777 ; AB 
 13898398 366.390015 0.0 ; ABS 
 13898416 366.369995 0.4967643912699548 ; AB 
 13898687 368.720001 0.21844460873004526 ; AB 
 13921199 361.089996 0.139942 ; AB 
 13921203 360.730011 0.0 ; AB 
 13921301 362.209991 0.0 ; AB 
 13940821 349.369995 1.0089880330091752e-05 ; STS 
 13958031 358.920013 0.0 ; AB 
 13961367 376.380005 0.584433 ; AB 
 13962019 365.910004 0.0 ; AB 
 13962231 361.350006 0.0 ; STS 
 13962288 361.529999 0.0 ; AB 
 13962292 361.51001 0.0 ; AB 
 14230391 361.940002 0.0 ; AB 
 14230564 361.420013 0.0 ; AB 
 14230576 361.529999 0.0 ; AB 
 14239156 400.429993 0.0 ; AB 
 14239201 401.600006 0.0 ; AB 
 14342278 366.630005 0.532993 ; AB 
 15578076 370.089996 0.0 ; AB 
 15580984 358.390015 0.098856 ; ABS 
 15809654 360.929993 0.0 ; AB 
 15816338 358.670013 0.0 ; AB 
 15816360 359.459991 0.0 ; AB 
 15821991 349.570007 0.018460051849498293 ; AB 
 15853539 360.880005 0.039701 ; AB 
 16495596 349.640015 0.0 ; AB 
 16495724 347.910004 0.5710884434475475 ; AB 
 16495977 347.98999 0.006454753240883014 ; AB 
 16496074 347.429993 0.0 ; AB 
 16496100 347.299988 0.18152355646012636 ; AB 
 16499934 376.130005 0.00010880541194499335 ; AB 
 17437828 356.029999 0.17704185673652906 ; AB 
 17437969 353.970001 0.4675361432634709 ; ABS 
 18691544 363.170013 0.15775185360683058 ; ABS 
 18836308 347.859985 0.00027106798868833866 ; AB 
 18836312 347.869995 0.2758175430668885 ; AB 
 18836538 349.609985 0.0 ; AB 
 18836589 349.48999 0.0 ; AB 
 18889714 374.230011 0.11995900000000001 ; AB 
 19501609 365.369995 0.0 ; AB 
 19506683 350.029999 0.0 ; AB 
 19506696 350.029999 0.42935879042569997 ; AB 
 19506954 355.880005 1.0704352095743004 ; AB 
 19506974 356.0 0.0 ; AB 
 19510018 361.876007 0.02816 ; AB 
 19607872 361.290009 0.037656 ; AB 
 19608685 352.700012 0.021106102002354733 ; AB 
 19654160 362.130005 0.04064327501645162 ; ABS 
 19654166 362.130005 0.0 ; ABS 
 19712765 349.0 1.8317147425849218 ; AB 
 19712800 348.98999 0.44597381434295885 ; AB 
 19712931 348.450012 0.0017491856570411117 ; AB 
 19712966 348.320007 0.30762030670599017 ; AB 
 19713081 348.390015 2.769329400984996e-05 ; AB 
 19713085 348.399994 1.133877357952103 ; AB 
 19713403 348.619995 0.1488806420478966 ; AB 
 19713430 348.640015 0.0 ; AB 
 19713479 348.690002 0.0 ; AB 
 19713514 348.679993 0.65546653657663 ; AB 
 19713685 346.549988 0.001443463423369915 ; AB 
 19912438 352.420013 0.0 ; AB 
 19912573 352.109985 0.0 ; AB 
 19912727 351.769989 0.0 ; AB 
 19912978 350.98999 0.0 ; AB 
 19913089 350.459991 0.0 ; AB 
 19956173 358.98999 0.07421864155438283 ; ABS 
 19956178 358.98999 0.6565499708761744 ; AB 
 19957714 356.170013 0.2716776310869811 ; AB 
 19958119 358.410004 0.8430176116811945 ; AB 
 1_1003 365.040009 0.0 
 1_1004 364.23999 0.011277 
 1_1005 364.25 0.313848 
 1_1006 362.312988 0.0 
 1_1008 362.304993 0.398261 
 1_1016 366.049988 0.11849854158982864 
 1_102 365.959991 0.0 
 1_1022 358.579987 0.0 
 1_1026 367.468994 0.20631532500959684 
 1_1035 361.071014 0.0 
 1_1036 361.063995 0.010816 
 1_1040 364.778992 0.18375525158269507 
 1_1041 364.786011 0.004419 
 1_1047 371.299988 0.15669938648903636 
 1_1049 362.73999 0.0 
 1_1061 360.812012 0.0 
 1_1065 362.820007 0.1409037815403048 
 1_1068 360.519989 0.0 
 1_1069 363.480011 0.0 
 1_1070 363.359985 0.0 
 1_1073 360.829987 0.067927 
 1_1074 361.029999 0.020114 
 1_1088 370.079987 0.08628447861766977 
 1_1090 365.98999 0.35689939956972955 
 1_1098 369.959991 0.001715 
 1_1099 369.980011 0.30693058304846027 
 1_1100 370.01001 0.012596651041757093 
 1_1101 370.390015 0.0007253489582429068 
 1_1105 364.100006 0.144756 
 1_1106 364.119995 0.0 
 1_1122 360.600006 0.0 
 1_1125 361.459991 0.07688932946249732 
 1_1126 361.03299 0.3509234719534384 
 1_1128 361.036987 0.0 
 1_1139 361.200012 0.08730658961798739 
 1_1143 362.690002 0.20289802299224524 
 1_1144 370.649994 0.04054265773020446 
 1_1145 370.619995 0.0 
 1_1147 370.600006 0.010229759221335254 
 1_1149 370.600006 0.0 
 1_1150 362.670013 0.8386446457010575 
 1_1152 363.230011 0.0007790307747891079 
 1_1154 369.830994 0.020642 
 1_1155 369.830994 0.01807 
 1_1156 364.049988 0.9316596100145147 
 1_1157 364.070007 0.0 
 1_1158 363.98999 0.0 
 1_1159 363.980011 0.0 
 1_1160 363.98999 0.095295 
 1_1161 369.699005 0.04230294084850518 
 1_1163 360.369995 0.009101 
 1_1166 369.653992 0.021565 
 1_1168 361.018005 0.0 
 1_1169 364.649994 0.2704606470109468 
 1_1170 364.670013 0.04737274913885682 
 1_1172 365.320007 0.0039025724701561657 
 1_1182 366.548004 0.0 
 1_1185 366.170013 0.014377 
 1_1186 366.149994 0.149373 
 1_1187 366.160004 0.08520257119308583 
 1_1188 368.920013 0.0 
 1_1190 365.606995 0.27287374509390805 
 1_1191 368.920013 0.07029474644192413 
 1_1195 368.899994 0.33172625355807583 
 1_1197 369.209991 0.07396286527322028 
 1_1200 362.730011 0.123521 
 1_1204 362.700012 0.026181 
 1_1212 363.950012 0.051967 
 1_1213 356.923004 0.006397347337070879 
 1_1214 363.950012 0.6277275962604424 
 1_1216 362.630005 0.032249 
 1_1218 362.630005 0.062717 
 1_1225 369.138 0.156759 
 1_1227 362.679993 0.2938274520356403 
 1_1229 362.679993 0.1785585479643597 
 1_1231 369.130005 0.0 
 1_1234 363.850006 0.2738318777699731 
 1_1236 369.01001 0.0 
 1_1240 369.078003 0.039173 
 1_1246 362.670013 0.027632 
 1_1247 368.820007 0.0 
 1_1248 362.660004 0.092196 
 1_1255 366.299988 0.004553428806914168 
 1_1256 366.290009 0.1377 
 1_1257 366.299988 0.0 
 1_1258 369.100006 0.02802280009564016 
 1_1268 358.040009 0.3823618051716094 
 1_1272 367.566986 0.2364079927770631 
 1_1275 367.149994 0.0 
 1_1277 367.149994 0.0 
 1_1281 366.73999 0.158803 
 1_1282 366.809998 0.0 
 1_1283 366.73999 0.0 
 1_1284 366.619995 0.0 
 1_1285 366.630005 0.0 
 1_1290 366.390015 0.07766568202279696 
 1_1291 366.359985 0.07764231797720303 
 1_1293 359.175995 0.0 
 1_1296 367.450012 0.07785866999322945 
 1_1297 366.850006 0.043633347763013 
 1_1298 362.5 1.686681163162966e-05 
 1_1299 359.459991 0.033574357113803605 
 1_1300 359.450012 0.0 
 1_1301 366.299988 0.0 
 1_1302 366.299988 0.0 
 1_1304 359.222992 0.0 
 1_1307 359.399994 0.0 
 1_1308 366.809998 0.0018716522369870007 
 1_1309 366.809998 0.006595 
 1_1310 368.483002 0.22078954181848348 
 1_1316 363.320007 0.027566 
 1_1320 359.350006 0.038809803997763834 
 1_1330 356.209991 0.0 
 1_1344 365.592987 0.06656946879062253 
 1_1348 365.60199 0.003957 
 1_1349 363.670013 0.041943 
 1_1350 363.670013 0.027039 
 1_1356 358.369995 0.018268 
 1_1359 365.953003 0.018761391944220218 
 1_1362 356.779999 0.0 
 1_1365 364.837006 0.013387 
 1_1378 364.381989 0.013585 
 1_1380 365.608002 0.014443 
 1_1382 363.100006 0.758668 
 1_1383 365.608002 0.0 
 1_1385 363.130005 0.0 
 1_1386 363.119995 0.0018729472080191553 
 1_1389 365.579987 0.0 
 1_1390 365.540009 0.009395998741644365 
 1_1394 364.951996 0.022422 
 1_1404 364.540009 0.20231807700047016 
 1_1413 364.839996 0.0770370232095148 
 1_1415 363.369995 0.090481 
 1_1417 363.399994 0.0 
 1_1418 363.350006 0.0023797992981253535 
 1_1441 364.899994 0.1597542898775236 
 1_1463 365.720001 0.749502021172148 
 1_1469 362.846985 0.256011 
 1_1472 362.76001 0.210639 
 1_1473 362.76001 0.0 
 1_1474 361.549988 0.22203748464232265 
 1_1475 361.559998 0.0 
 1_1478 363.410004 0.0 
 1_1488 365.660004 0.0 
 1_1491 365.559998 0.0 
 1_1492 365.48999 0.1736208033405548 
 1_1493 365.630005 0.0 
 1_1494 365.959991 0.0 
 1_1509 362.484985 0.48299541742193874 
 1_1527 363.23999 0.0 
 1_1560 356.653015 0.2694197675871789 
 1_1561 373.372986 0.0 
 1_1562 373.372986 0.0032142125421000247 
 1_1563 365.179993 1.2058357101224764 
 1_1565 373.372986 0.049065 
 1_1601 365.192993 0.0 
 1_1603 361.696014 0.0 
 1_1609 357.266998 0.0 
 1_1615 356.872009 0.020378 
 1_1626 361.313995 0.0 
 1_164 368.040009 0.005145685404728904 
 1_1645 356.266998 0.0 
 1_1651 356.131012 0.05356793660144304 
 1_167 367.670013 0.00019631459527109718 
 1_1675 364.769989 0.0015689399944813366 
 1_1679 372.420013 0.029454313524247835 
 1_1680 372.420013 0.02306698709011508 
 1_1696 360.75 6.11987984088643e-05 
 1_1697 359.549988 0.1853138453387115 
 1_1700 364.279999 0.0 
 1_1702 362.73999 0.3680771095481135 
 1_1705 362.850006 0.0 
 1_1712 362.850006 0.3656734894118764 
 1_1715 364.82901 0.09820683002102781 
 1_1720 356.786011 0.353285 
 1_1724 359.369995 0.0 
 1_1725 363.929993 0.370353457006218 
 1_1731 371.850006 0.0094713559224117 
 1_1733 363.619995 0.900391 
 1_1735 363.619995 0.0007302643271556733 
 1_1738 361.709991 0.0 
 1_1740 371.519989 0.05321273440773724 
 1_1741 371.480011 0.08583377443322568 
 1_1745 361.630005 0.0 
 1_1746 361.660004 0.00033 
 1_1751 361.459991 0.0 
 1_1752 361.579987 0.0 
 1_1755 361.589996 0.0 
 1_1756 361.589996 0.0 
 1_1778 359.329987 0.0 
 1_178 378.269989 0.07982933474956974 
 1_180 378.119995 0.0 
 1_181 364.140015 0.12670539543663326 
 1_1824 364.084015 0.24282752992261103 
 1_1837 355.429993 0.05338963611720171 
 1_1838 353.782013 0.701965676066989 
 1_184 376.640015 0.0 
 1_1845 353.826996 0.008046 
 1_1846 362.640015 0.0 
 1_1847 362.720001 0.0 
 1_1849 353.779999 0.0 
 1_185 376.649994 0.3928967532788621 
 1_1851 353.779999 0.065816 
 1_1863 355.315002 0.0 
 1_1868 353.070007 2.0857864038990948 
 1_1869 353.070007 0.0 
 1_1873 362.149994 0.0 
 1_1879 361.98999 0.0 
 1_1885 359.940002 0.1140945394522599 
 1_1886 359.859985 0.0006108695104348123 
 1_1887 353.475006 0.01035868424887448 
 1_1898 353.585999 0.05136831575112552 
 1_1901 359.548004 0.039635 
 1_1902 359.519989 0.04186013048956518 
 1_1903 362.160004 0.39679924626153 
 1_1904 359.769989 0.055001 
 1_1906 362.160004 0.6944866457172724 
 1_1909 362.549988 0.006793 
 1_191 365.299988 0.0 
 1_1914 361.950012 0.0 
 1_1915 363.320007 0.179643 
 1_1916 361.929993 0.7205034711538671 
 1_1925 362.920013 0.0 
 1_1929 359.929993 0.0 
 1_1930 359.970001 0.3193502906434491 
 1_1937 360.209991 0.0 
 1_1944 354.670013 0.16013336782400248 
 1_1947 361.279999 0.0 
 1_1948 360.239014 0.236556 
 1_1949 374.970001 0.05719310805942051 
 1_1950 374.959991 0.020378 
 1_1954 353.381012 0.005606 
 1_1956 363.299988 0.08127842935269405 
 1_1959 375.299988 0.033788194588055015 
 1_1960 353.399994 0.03337 
 1_1961 353.399994 0.0028965185851944635 
 1_1966 361.109985 0.07498624790872285 
 1_1969 360.279999 0.155902 
 1_1971 360.720001 0.081116 
 1_1972 360.700012 0.0 
 1_1975 360.769989 0.0 
 1_1976 360.769989 0.078215 
 1_1981 361.570007 0.20937881558942806 
 1_1984 353.256989 0.029215 
 1_1988 354.174988 0.9912913086566324 
 1_1989 353.170013 0.31024046290584784 
 1_1990 353.170013 0.11494449564116654 
 1_1993 356.769989 0.3021646196396923 
 1_2010 353.140015 0.036008 
 1_2015 358.559998 0.31626409230101965 
 1_2021 360.967987 0.0 
 1_2022 360.967987 0.0 
 1_2023 360.75 0.0 
 1_2038 360.480011 0.026129785008810615 
 1_2039 360.809998 0.0 
 1_2040 352.558014 0.011236882745145492 
 1_2041 363.091003 0.007914 
 1_2042 352.558014 0.0 
 1_2043 363.091003 0.0 
 1_2044 352.600006 0.12068289799764526 
 1_2045 352.670013 0.013981 
 1_2046 352.690002 1.3971303575790004 
 1_2047 360.01001 0.0428 
 1_2048 363.26001 0.0 
 1_2049 360.0 0.0 
 1_2051 363.23999 0.0 
 1_2054 352.899994 0.06302461731835417 
 1_2055 358.329987 0.34092694686312397 
 1_2056 356.447998 0.0 
 1_2058 360.005005 0.0 
 1_2059 360.024994 0.057398003697231595 
 1_2060 356.541992 0.00010564269823416103 
 1_2061 360.001007 0.008375 
 1_2064 360.855988 0.3914104649084367 
 1_2067 360.869995 0.12204169714262124 
 1_2071 360.130005 0.0 
 1_2076 352.690002 0.17877031554031875 
 1_2078 352.700012 0.1020171444231782 
 1_2079 359.980011 0.26236523295806724 
 1_2081 359.975006 0.9146902772568108 
 1_2083 355.660004 0.0 
 1_2087 355.559998 0.21288688023808022 
 1_2088 359.860992 0.001451 
 1_2089 359.790985 0.08072566175802352 
 1_2093 352.48999 0.0 
 1_2097 352.48999 0.3204906424209994 
 1_2100 360.71701 0.22703428044234625 
 1_2103 355.5 0.0 
 1_2104 355.429993 0.500349 
 1_2108 352.790009 0.1987167434926113 
 1_2111 356.481995 0.004840357301765839 
 1_2112 359.911011 0.166387 
 1_2113 356.481995 0.04147397800543695 
 1_2117 359.911011 0.3245746957732683 
 1_2119 352.380005 0.180236 
 1_2120 352.690002 0.151417 
 1_2127 352.559998 0.0 
 1_2129 352.329987 0.0 
 1_2133 361.109985 0.096614 
 1_2134 357.907013 0.29074969366432524 
 1_2137 363.519989 0.0 
 1_2141 363.75 0.0 
 1_2144 352.170013 0.0 
 1_2146 352.51001 0.0 
 1_2149 359.789001 0.03827230422673169 
 1_2150 352.190002 0.090811 
 1_2152 352.470001 0.0 
 1_2153 361.309998 0.02027430285737875 
 1_2156 359.752991 0.0 
 1_2157 361.309998 0.1418260389352182 
 1_2158 351.76001 0.0 
 1_2163 351.600006 0.0 
 1_2171 346.579987 1.0797796384491911 
 1_2177 344.730011 0.2413419967203156 
 1_2178 344.769989 0.166585 
 1_2179 348.029999 0.3324758555426495 
 1_2180 351.940002 0.0 
 1_2181 351.910004 0.061332 
 1_2184 348.190002 0.0 
 1_2185 351.559998 0.0 
 1_2186 348.200012 0.018401776970319052 
 1_2187 351.589996 0.0 
 1_2206 354.035004 0.6808218365101327 
 1_2208 351.76001 0.033172 
 1_2209 351.690002 0.035942 
 1_2211 345.320007 0.147394 
 1_2213 351.779999 0.0 
 1_2214 351.779999 0.075313 
 1_2215 351.790009 0.0 
 1_2218 352.48999 0.011046316732287398 
 1_2222 346.320007 0.10459580847864174 
 1_2223 345.420013 0.100307 
 1_2224 345.410004 0.0 
 1_2227 351.559998 0.18037560061414984 
 1_2228 345.51001 0.0 
 1_2229 351.529999 0.49283714621693586 
 1_2230 345.48999 0.285622 
 1_2232 351.679993 0.1762063993858502 
 1_2233 349.579987 0.486368 
 1_2235 348.73999 0.0 
 1_2238 348.799988 0.0006802653138726579 
 1_2243 352.679993 0.0567980937337484 
 1_2245 348.160004 0.05836798925021644 
 1_2246 351.540009 0.074917 
 1_2247 351.559998 0.0 
 1_2248 346.769989 0.0 
 1_2254 352.359985 0.0 
 1_2255 347.040009 0.3641250803290822 
 1_2257 352.290009 0.036469 
 1_2259 347.040009 1.6899040300233108 
 1_2267 348.160004 0.22083337085345384 
 1_2268 351.359985 0.056122 
 1_2269 351.320007 0.035414 
 1_227 362.570007 0.05566 
 1_2270 348.119995 0.0 
 1_2271 346.119995 0.299075 
 1_2272 346.130005 0.0 
 1_2275 351.230011 0.19733848123823922 
 1_2276 351.269989 0.12317051876176083 
 1_2278 348.839996 0.29432681985522186 
 1_228 362.559998 0.0 
 1_2281 357.649994 0.32434682712195856 
 1_2283 357.640015 0.0 
 1_2287 357.720001 0.0 
 1_2288 348.429993 0.4164543184502715 
 1_2289 348.640015 0.10551522302968094 
 1_2291 348.630005 0.0 
 1_2292 348.540009 0.0011361397925875138 
 1_2293 348.640015 0.0 
 1_2298 348.190002 0.1494238602074125 
 1_2300 349.410004 0.0 
 1_2302 349.429993 0.0 
 1_2305 351.029999 0.000396 
 1_2306 350.98999 0.0 
 1_2307 351.01001 0.0 
 1_2308 348.720001 0.2512172685922486 
 1_2312 350.910004 0.121806 
 1_2313 350.910004 0.103539 
 1_2317 349.079987 0.0 
 1_2318 347.220001 0.022339775868058513 
 1_2319 349.089996 0.0 
 1_2320 352.309998 0.028456683267712606 
 1_2321 348.299988 0.122136 
 1_2332 355.807007 0.14674383011311037 
 1_2336 354.410004 0.6052023418483996 
 1_2337 357.238007 0.0 
 1_2339 356.20401 0.0 
 1_2341 362.746002 0.19274097558158265 
 1_2343 362.743988 0.0 
 1_236 363.321991 0.1972365207591198 
 1_2361 357.765015 0.16805903753087628 
 1_2366 358.279999 0.0 
 1_2368 358.299988 0.0 
 1_237 364.970001 0.005474 
 1_2370 360.880005 0.0 
 1_2375 354.890015 0.14660729872346429 
 1_2378 354.950012 0.6638773748412186 
 1_238 363.089996 0.020576 
 1_2381 360.98999 0.0 
 1_2383 360.959991 0.0 
 1_2384 360.970001 0.0 
 1_2385 360.98999 0.09223800503253399 
 1_2386 358.380005 0.0 
 1_2387 360.649994 0.0 
 1_239 363.619995 0.009497 
 1_2390 360.899994 0.05070349067304326 
 1_2399 353.457001 0.6916126398503827 
 1_240 363.079987 0.0 
 1_2403 359.579987 0.0006745894439806192 
 1_2405 353.420013 0.08361892242888515 
 1_241 364.440002 0.011343 
 1_2413 362.040009 0.02188145276686287 
 1_2414 362.049988 0.016751 
 1_242 363.970001 0.016289 
 1_243 363.929993 0.0 
 1_2434 359.350006 0.017278 
 1_244 364.0 0.0 
 1_2442 359.75 0.0 
 1_2448 356.119995 0.0 
 1_245 364.019989 0.0 
 1_2452 359.359985 0.0 
 1_246 364.73999 0.0 
 1_2462 355.075989 0.08827811830495552 
 1_2476 356.019989 0.0 
 1_248 363.910004 0.0 
 1_2489 361.779999 0.005053889371069579 
 1_249 363.640015 0.011079 
 1_2491 361.769989 0.00710398969364133 
 1_2495 363.23999 0.011607 
 1_250 363.690002 0.0 
 1_2505 355.910004 0.3645588393306485 
 1_2508 360.290009 0.029576400160768592 
 1_251 363.899994 0.0 
 1_2515 357.730011 0.0 
 1_252 363.559998 0.0 
 1_2521 357.600006 0.003405962469123738 
 1_2523 357.519989 0.003166 
 1_253 363.540009 0.014575 
 1_2531 357.950012 0.012596 
 1_2532 357.970001 0.0 
 1_2538 361.649994 0.16115512093528908 
 1_2539 361.630005 0.0 
 1_2540 361.640015 0.0 
 1_2541 361.559998 0.0 
 1_2542 361.670013 0.0030262931252842016 
 1_2543 357.609985 0.0 
 1_2545 357.570007 0.0 
 1_2548 357.619995 0.0 
 1_2549 355.01001 0.013748603230920036 
 1_255 363.079987 0.0 
 1_2550 357.600006 0.17383323353584162 
 1_2551 357.559998 0.0 
 1_256 363.109985 0.013981 
 1_2562 359.838989 0.005606 
 1_2563 359.807007 0.032578 
 1_257 363.109985 0.0 
 1_258 363.119995 0.0 
 1_259 363.140015 0.011871 
 1_2590 358.988007 0.14488915466128843 
 1_2594 363.519989 0.027680213768291072 
 1_2595 357.130005 0.040168766464158394 
 1_2596 363.160004 0.8277080201943988 
 1_2597 363.140015 0.134864 
 1_2598 362.013 0.0031560574268326047 
 1_2599 357.200012 0.0 
 1_2600 357.100006 0.0 
 1_2601 357.75 0.3791463803603077 
 1_2603 357.140015 0.18523850116983637 
 1_2607 352.380005 0.0 
 1_2608 352.390015 0.0 
 1_2609 355.01001 0.0 
 1_261 363.529999 0.0 
 1_262 363.089996 0.0 
 1_2620 362.070007 0.009793053666665923 
 1_2623 361.829987 0.11782365320804988 
 1_2625 363.079987 0.062915 
 1_2626 363.079987 0.04600652558862559 
 1_2633 363.26001 0.4933679425731674 
 1_2634 363.26001 0.0 
 1_2638 363.399994 0.0 
 1_264 364.73999 0.4847678482447985 
 1_2640 363.369995 0.0 
 1_2641 363.410004 0.10177894901614674 
 1_2642 362.950012 0.30819477845320215 
 1_2645 362.920013 0.14163822154679787 
 1_2647 362.869995 0.04521888646108575 
 1_265 365.049988 0.0 
 1_2651 358.779999 0.0 
 1_2652 358.779999 0.07683778653126302 
 1_2659 352.75 0.1119970262594144 
 1_266 365.040009 0.3989864593005038 
 1_2660 359.839996 0.0 
 1_2663 352.53299 0.0 
 1_2664 356.149994 0.31199421448352915 
 1_2665 363.609985 0.015564 
 1_2668 357.859009 0.092262 
 1_267 363.059998 0.159331 
 1_2670 359.570007 0.033304 
 1_2674 358.809998 0.040228 
 1_2675 358.790009 0.58628 
 1_2676 363.690002 0.0 
 1_2677 358.714996 0.4882548944142126 
 1_268 363.059998 0.010288 
 1_2680 352.78299 0.03493825650738873 
 1_2684 351.720001 0.119498 
 1_2685 352.420013 0.0 
 1_2689 356.019989 0.13108639719703064 
 1_269 362.570007 0.0 
 1_2690 356.019989 0.0 
 1_2692 358.299988 0.029109282043217572 
 1_2693 352.410004 0.0 
 1_2695 358.299988 0.0 
 1_2696 363.600006 0.0 
 1_2698 360.149994 0.3176468854899171 
 1_2699 360.549988 0.0 
 1_270 362.450012 0.06054 
 1_2700 360.100006 0.0 
 1_2702 357.859985 0.0 
 1_2705 363.540009 0.0 
 1_2706 357.880005 0.12917955425405972 
 1_271 362.450012 0.0 
 1_2710 363.540009 0.002825966813847871 
 1_2714 352.730011 0.006991 
 1_2716 352.769989 0.006727 
 1_2717 356.290009 0.015762 
 1_2718 356.350006 0.094899 
 1_2719 356.26001 0.0 
 1_272 362.279999 0.0 
 1_2720 356.670013 0.11291078551647081 
 1_2722 357.899994 0.02368439324892362 
 1_2723 357.890015 0.0 
 1_2725 352.899994 0.0 
 1_2727 352.885986 0.14635911929801915 
 1_2728 351.769989 0.2517634252594148 
 1_273 362.350006 0.0 
 1_2737 359.390015 0.17490852635924387 
 1_274 362.290009 0.0 