[TITLE]
DESCRIPTION


[JUNCTIONS]
;id elevation demand demandpattern
10141613 364.339996 0.0 ; AB 
 10446399 359.440002 0.0 ; AB 
 10459656 361.640015 0.0 ; AB 
 10477674 332.179993 0.39848438444568124 ; AB 
 10477687 332.089996 0.12650028836290345 ; AB 
 10477696 331.869995 0.06553096635500039 ; AB 
 10477722 331.089996 0.06324801236625473 ; AB 
 10477731 331.984009 0.01451655080008451 ; AB 
 10477735 331.980011 0.052103675661985656 ; AB 
 10477749 331.01001 0.09718300734122393 ; AB 
 10477826 330.920013 0.031939259006112615 ; AB 
 10477842 330.920013 0.065901580015555 ; AB 
 10477874 331.579987 0.039307759990305544 ; AB 
 10477920 333.059998 0.061279768818677444 ; AB 
 10477924 333.059998 0.17141334671260267 ; AB 
 10478046 335.869995 0.30316638995859263 ; AB 
 10478058 339.929993 1.6142026503091396 ; AB 
 10484214 336.938995 1.1743214663799995 ; AB 
 10484218 338.487 0.6445321180781112 ; AB 
 10484230 337.153992 0.1926801930310058 ; AB 
 10484242 337.381012 0.3188762103235714 ; AB 
 10486393 333.209991 0.641064329462326 ; AB 
 10490049 330.049988 0.14034808508998525 ; AB 
 10490183 329.230011 0.11424912316269953 ; AB 
 10505494 339.531006 0.7714126385124124 ; AB 
 10505550 341.252991 0.4299844441084683 ; AB 
 10505619 340.480011 0.274043829766418 ; AB 
 10505663 340.100006 0.12152791721559905 ; AB 
 10505729 339.351013 0.010918871270145805 ; AB 
 10505762 339.75 0.20130331701157334 ; AB 
 10505955 339.154999 0.7225026041788112 ; AB 
 10505976 339.26001 0.026641105893075948 ; AB 
 10506047 339.794006 0.1208648327969873 ; AB 
 10506081 340.22699 0.14657307650991472 ; AB 
 10506160 340.557007 0.0 ; ABS 
 10506165 340.54599 0.35193314877382414 ; AB 
 10506169 340.757996 0.023938606478511943 ; AB 
 10506173 340.657013 0.001514555891531727 ; AB 
 10506195 340.970001 1.581317491669165 ; AB 
 10523358 339.798004 0.28943544050239217 ; AB 
 10523651 343.820007 0.40841044388111214 ; AB 
 10523763 346.291992 0.13391430643698332 ; AB 
 10537217 346.686005 0.01452639071930903 ; AB 
 10537360 351.446014 0.4533991222409287 ; AB 
 10537420 350.68399 0.09496206013782467 ; AB 
 10537456 349.451996 0.19572881073027462 ; AB 
 10537460 349.46701 6.817651066212721e-05 ; AB 
 10537479 348.714996 0.2505472999963807 ; AB 
 10537493 348.696991 0.0 ; AB 
 10537520 346.799988 1.1197957720097418 ; AB 
 10544748 339.385986 0.017671723039001844 ; AB 
 10544770 339.450012 0.1353271288668613 ; AB 
 10555459 342.0 0.23482082260939222 ; ABS 
 10555464 342.0 0.0 ; AB 
 10555486 342.619995 0.41851840466355883 ; AB 
 10555513 343.042999 0.14587243484216644 ; AB 
 10565047 337.463013 0.4829085642127387 ; AB 
 10565144 337.459991 0.04551626934002672 ; AB 
 10569527 344.144012 0.07472197479955077 ; STS 
 10569603 344.359009 0.033908778762960085 ; AB 
 10569617 344.69101 0.57294722123704 ; AB 
 10569621 345.230011 0.0013098747015232934 ; STS 
 10569713 347.115997 0.30954186341454537 ; AB 
 10569742 347.019989 0.0 ; AB 
 10589077 341.790009 0.5486230000000001 ; AB 
 10589081 341.790009 0.4893272001867962 ; AB 
 10589095 341.877991 0.104792 ; AB 
 10589099 341.868011 0.11840913010863796 ; AB 
 10589133 341.428009 0.0037347114530135307 ; AB 
 10589241 342.563995 0.9885273098412347 ; AB 
 10589319 344.14801 0.0 ; AB 
 10589323 344.10199 0.056016808814961315 ; AB 
 10589333 342.632996 0.13868208622127964 ; AB 
 10589337 342.52301 0.0 ; AB 
 10589345 342.712006 0.1787581911850387 ; AB 
 10589368 342.320007 0.005949255594328748 ; AB 
 10589372 342.299988 0.9442965834832863 ; AB 
 10589376 342.320007 0.0 ; AB 
 10589481 342.899994 0.11675652302044136 ; AB 
 10589485 342.579987 0.0 ; AB 
 10589503 342.830994 0.0911005605805128 ; AB 
 10589570 343.496002 0.0015087043307447925 ; AB 
 10589657 343.070007 0.7003704024484411 ; AB 
 10589694 342.990997 0.7867499014601866 ; AB 
 10601414 345.410004 0.0 ; AB 
 10601471 343.0 0.011548714496288436 ; AB 
 10601499 342.940002 0.03167615430782862 ; AB 
 10601541 343.0 0.0 ; AB 
 10601545 342.98999 0.25823574522447584 ; AB 
 10601583 343.01001 0.3661054486059684 ; AB 
 10601655 345.350006 7.315479901066984e-06 ; AB 
 10621799 336.5 0.24719920068840961 ; AB 
 10621814 335.470001 0.24507509202505262 ; AB 
 10622024 334.906006 0.10458398507305704 ; AB 
 10622087 336.066986 0.12345176275843653 ; AB 
 10622207 334.190002 0.18441785002097538 ; AB 
 10622225 334.559998 0.02846694083285579 ; AB 
 10622256 335.429993 0.044477994340194005 ; AB 
 10622260 335.529999 0.11304871378628353 ; AB 
 10622334 335.480011 0.05189891632333962 ; AB 
 10622351 335.220001 0.005245065877338828 ; AB 
 10637171 341.779999 0.13670577291916833 ; AB 
 10637194 341.429993 0.2161956949532152 ; ABS 
 10637204 336.244995 0.3541834442388351 ; AB 
 10637226 336.401001 0.4645974201136775 ; AB 
 10637271 339.807007 0.226136 ; AB 
 10637275 341.554993 0.2807151671737359 ; AB 
 10637287 341.574005 0.6903210601186678 ; AB 
 10637299 341.98999 0.008969 ; AB 
 10637313 341.980011 0.13217036314839556 ; AB 
 10637354 341.429993 0.064168 ; AB 
 10637358 341.429993 0.0 ; AB 
 10642423 343.070007 0.16539354536337306 ; ABS 
 10650384 339.891998 0.8488525012648895 ; AB 
 10666429 361.890015 0.0 ; AB 
 10673702 357.640015 0.3195581073855259 ; AB 
 11063488 346.980011 0.08049286228196993 ; STS 
 11063493 346.980011 0.316288 ; STS 
 11160778 359.880005 0.0008556923122132871 ; ABS 
 11160974 361.049988 0.00018162133659386032 ; AB 
 11160986 361.079987 0.16892679002704053 ; STS 
 11161126 361.764008 0.1097853788064199 ; AB 
 11161130 361.649994 0.260693 ; AB 
 11161134 361.782013 0.13575024871087604 ; AB 
 11161196 368.618011 0.032776 ; AB 
 11161227 363.549011 0.18340723340695073 ; AB 
 11161252 356.940002 0.4368957029536183 ; AB 
 11161287 356.869995 0.027905216115642416 ; AB 
 11161374 357.070007 0.14927026707537666 ; ABS 
 11161379 357.070007 0.39343578127035617 ; AB 
 11161457 358.290009 0.03093 ; AB 
 11161471 360.225006 0.07332391017882962 ; AB 
 11249129 352.829987 0.03197208876720536 ; AB 
 11249324 355.230011 0.39680958574967373 ; AB 
 11249384 356.119995 0.27358253834003476 ; AB 
 11249422 353.015015 0.16462077470224937 ; AB 
 11249453 356.480011 0.04069 ; AB 
 11249570 354.177002 1.1036704204429402 ; ABS 
 11249820 354.339996 0.06652882055490345 ; ABS 
 11249825 354.309998 0.0020775535134131737 ; AB 
 11266119 349.596985 0.39557040349917505 ; AB 
 11266196 349.910004 0.6402278082039183 ; AB 
 11266411 352.619995 0.360143 ; AB 
 11266459 351.653992 0.17894917774732455 ; AB 
 11287396 349.083008 0.15679385339572946 ; STS 
 11294552 348.26001 5.347900582928163e-07 ; AB 
 11294556 347.997009 0.014680326975070034 ; AB 
 11297594 347.76001 0.21708853352261875 ; AB 
 11300316 355.700012 0.00055935514529497 ; STS 
 11300346 357.565002 0.03858 ; AB 
 11300395 361.540009 0.2075585635937325 ; AB 
 11304491 346.040009 0.41466252436416773 ; ABS 
 11304658 346.029999 2.646706460219819 ; AB 
 11329379 333.670013 0.2616094777044542 ; AB 
 11356917 346.317993 0.0 ; AB 
 11357532 347.929993 0.771922478344253 ; AB 
 11357569 350.268005 0.116069 ; AB 
 11357691 348.429993 0.27971444126261985 ; AB 
 11357700 348.540009 0.2623901174014984 ; AB 
 11357806 348.529999 1.0058201095280368 ; AB 
 11357843 346.950012 0.5552094976683508 ; AB 
 11357847 346.649994 0.072939 ; AB 
 11357973 349.76001 0.1567943364524501 ; AB 
 11358114 347.809998 0.33872913470710336 ; AB 
 11358128 347.929993 0.002471008739158488 ; AB 
 11358174 347.02301 0.13669210611452487 ; AB 
 11358221 347.871002 0.3978332047275978 ; AB 
 11358442 346.440002 0.13981626862133 ; AB 
 11358472 346.321014 0.4919181298856718 ; AB 
 11358508 347.799011 0.0 ; AB 
 11358604 345.957001 0.0 ; AB 
 11358665 347.440002 0.465133 ; STS 
 11388623 345.570007 0.23911169860329362 ; AB 
 11389480 344.838989 0.0 ; AB 
 11389488 344.841003 2.2923646126939436 ; AB 
 11389492 344.854004 0.055263463665403995 ; AB 
 11389496 344.843994 0.0 ; AB 
 11389500 344.838013 0.0 ; AB 
 11389529 344.309998 0.19250304911188224 ; AB 
 11389537 344.549988 0.2833012544973289 ; AB 
 11389541 344.549988 0.0 ; AB 
 11389545 344.429993 1.4878290813364684e-05 ; AB 
 11389549 344.480011 0.12734506666863313 ; AB 
 11389617 344.906006 0.5371861417127999 ; AB 
 11389758 344.799988 0.0725123316014056 ; AB 
 11389867 345.494995 0.0 ; AB 
 11389871 345.484985 0.013952440761808358 ; ABS 
 11389915 345.494995 0.0 ; ABS 
 11390036 344.283997 0.34000720271003493 ; AB 
 11390040 344.359985 0.7015960450421312 ; AB 
 11390044 345.263 0.4982523937565682 ; AB 
 11390071 346.074005 0.011655943837097813 ; ABS 
 11390080 346.380005 0.19451855873738017 ; AB 
 11390098 346.195007 0.0 ; ABS 
 11390103 346.195007 0.14213505616290217 ; AB 
 11390123 345.957001 0.19971298857646463 ; STS 
 11390133 346.169006 0.25610706761405017 ; AB 
 11390182 346.329987 0.2117740556755261 ; AB 
 11390231 345.700012 0.0 ; AB 
 11390235 345.679993 0.00997987671042374 ; AB 
 11390275 345.701996 0.0 ; AB 
 11390443 344.75 0.2242129810653029 ; AB 
 11390447 344.721985 0.016291657391790015 ; AB 
 11408109 345.059998 1.3759171428723578 ; AB 
 11408113 345.269989 0.0 ; AB 
 11408162 345.269989 0.060910736245063546 ; AB 
 11408175 345.440002 0.147065 ; AB 
 11408239 347.670013 1.1342214569331115 ; AB 
 11408243 347.670013 0.3249877399333266 ; AB 
 11408275 346.549988 0.0 ; AB 
 11408279 347.029999 0.6823633665917561 ; AB 
 11408314 346.850006 0.357241 ; AB 
 11408332 345.700012 0.13519811903650464 ; AB 
 11408400 351.083008 0.15221656732373545 ; AB 
 11408427 351.059998 0.02364617113759283 ; AB 
 11408436 351.059998 0.18538 ; AB 
 11421527 351.640015 0.12030008823406037 ; STS 
 11423952 356.253998 0.1607867777653842 ; AB 
 11423988 351.553009 0.37604548031488916 ; AB 
 11423992 349.812988 0.32892157091294605 ; AB 
 11424001 351.641998 0.7298774188211943 ; AB 
 11424213 356.770996 0.747655 ; AB 
 11424240 357.119995 0.109144 ; AB 
 11435249 343.179993 0.1583291642008188 ; ABS 
 11435254 343.179993 1.4797143989704624 ; AB 
 11435292 343.049988 0.5578015084622098 ; AB 
 11435414 342.820007 1.3454785023280669 ; AB 
 11435464 342.424988 0.15449904538626538 ; ABS 
 11447599 354.195007 0.25676530458879415 ; AB 
 11447681 354.105988 0.3976967988227775 ; AB 
 11447698 354.06601 0.0 ; ABS 
 11447703 354.080994 1.1898221677014216 ; AB 
 11447716 354.243011 0.21372673164830397 ; AB 
 11447747 348.048004 0.24018251656438644 ; AB 
 11447764 350.190002 0.45254684623629526 ; STS 
 11461861 362.674988 0.25119210170266626 ; AB 
 11461911 357.010986 0.21358201882618066 ; AB 
 11461928 357.041992 0.105583 ; AB 
 11462062 358.429993 3.3643590461175017 ; AB 
 11462142 359.279999 0.029190544664623584 ; AB 
 11462166 359.420013 3.59936309839139e-05 ; AB 
 11462265 360.272003 0.318933461817248 ; STS 
 11462309 359.614014 0.09124443790854722 ; AB 
 11462343 359.160004 0.4368947344948948 ; AB 
 11462347 358.985992 0.34211026407664374 ; AB 
 11462392 363.231995 0.25088742280870036 ; AB 
 11474169 360.785004 0.020669405668148944 ; ABS 
 11474215 360.401001 0.042315097982123136 ; AB 
 11474253 360.640015 0.04680124194336646 ; AB 
 11474257 360.312988 1.124351 ; AB 
 11474261 360.90799 2.9452258990453783 ; AB 
 11491086 357.100006 0.14358775044047126 ; ABS 
 11491099 357.100006 0.02801175959615971 ; AB 
 11491323 356.671997 0.0 ; ABS 
 11491328 356.662994 0.0 ; ABS 
 11491337 356.671997 0.0 ; AB 
 11491494 354.569 0.02006540415119322 ; AB 
 11491516 355.880005 0.16454905774604126 ; AB 
 11491538 355.403992 0.31544692342777814 ; AB 
 11491573 354.933014 0.66536091301416 ; AB 
 11491586 354.414001 0.13641669541120588 ; AB 
 11498509 342.222992 0.02586925965312175 ; AB 
 11498680 341.648987 0.05831419271232875 ; AB 
 11511106 352.630005 1.119042375601727 ; AB 
 11511119 352.859985 0.053352 ; AB 
 11511381 342.839996 0.421673 ; AB 
 11529255 352.097992 0.10648777808429247 ; AB 
 11529306 351.279999 0.04360231816368433 ; AB 
 11529310 351.304993 0.07612870380905021 ; AB 
 11529360 351.229004 0.08643971657798415 ; AB 
 11529396 351.210999 0.2808046222912547 ; AB 
 11529528 352.950012 0.9306213009025948 ; AB 
 11857246 359.984985 0.15454369725695397 ; AB 
 11857514 355.024994 0.0 ; AB 
 11857518 355.011993 0.0 ; AB 
 11857522 355.006012 0.1330589695237433 ; AB 
 11857727 364.681 0.3955362359689103 ; AB 
 11879947 368.744995 0.2019185459325371 ; AB 
 11880038 369.5 0.10996471421961215 ; ABS 
 11880043 369.5 0.45112121809855255 ; AB 
 11880144 362.967987 0.14827606724912026 ; AB 
 11880188 362.739014 0.0 ; AB 
 11880263 361.459991 0.0 ; ABS 
 11880357 349.540009 0.251197 ; AB 
 11880840 348.761993 0.4668507880055344 ; AB 
 11881181 352.777008 0.12591574566870756 ; AB 
 11881210 350.968994 0.01139600416767687 ; AB 
 11881234 350.824005 0.4074635502547287 ; AB 
 11881395 349.450012 0.0016420501332105606 ; AB 
 11881415 349.359985 1.3717312645513093 ; AB 
 11906687 363.100006 0.09448871338934134 ; AB 
 11906985 363.856995 0.8728021976424332 ; AB 
 11907198 363.890991 0.2413952562959487 ; AB 
 11907563 364.208008 0.0 ; AB 
 11907567 364.320007 3.560544 ; AB 
 11907585 363.144989 0.15815046684339432 ; AB 
 11907770 363.839996 0.055133 ; AB 
 11908021 363.579987 0.9802030033388649 ; AB 
 11908038 363.980011 0.9954425263761495 ; AB 
 11908042 363.980011 0.0 ; ABS 
 11908120 366.071991 0.2629683762006458 ; AB 
 11927161 358.600006 0.318728 ; AB 
 11927165 362.130005 0.0 ; AB 
 11927187 362.130005 0.539379364529736 ; ABS 
 11927431 358.355988 0.7812441107412805 ; AB 
 11927833 361.589996 0.23585542546014063 ; AB 
 11927837 361.619995 0.04922053462392531 ; AB 
 11927878 361.540985 0.4533511506080982 ; AB 
 11928071 360.112 0.2554103770448042 ; AB 
 11928154 352.127991 0.15966143399672642 ; AB 
 11928158 351.339996 0.32415111655818885 ; AB 
 11928176 351.079987 0.0 ; AB 
 11960447 348.933014 0.0 ; ABS 
 11960452 348.933014 0.0 ; AB 
 11960456 348.929993 0.0 ; ABS 
 11960514 348.596008 0.44870129108922646 ; AB 
 11960689 348.835999 0.4403566198103093 ; AB 
 11960703 347.665009 0.0 ; AB 
 11960707 347.665009 0.0 ; ABS 
 11960892 349.079987 0.991920922798468 ; AB 
 11960951 348.589996 0.647552077201532 ; STS 
 11961053 347.54599 0.191382 ; AB 
 11961147 348.880005 0.000989 ; AB 
 11961196 348.575989 0.5292803025103635 ; AB 
 11961258 348.686005 0.2014699890090708 ; AB 
 11961280 348.725006 0.28894386863288646 ; AB 
 11961438 348.589996 0.0616563008782506 ; AB 
 11961442 348.589996 0.239524 ; ABS 
 11961533 348.869995 0.0 ; AB 
 11961542 348.859985 0.0 ; AB 
 11961757 349.269989 0.14077765340490683 ; AB 
 11961766 349.415009 0.5129194505673755 ; AB 
 11961840 350.419006 0.46218166735521604 ; AB 
 11961853 348.343994 0.4974923542411143 ; AB 
 11961996 348.954987 0.07906432090856294 ; AB 
 11962267 348.47699 0.0 ; AB 
 11962283 348.598999 0.11815836197821766 ; AB 
 11962296 348.570007 0.0 ; AB 
 11962305 348.45401 0.27031219631305253 ; AB 
 11962558 349.996002 0.7418861726486987 ; AB 
 11962681 350.050995 0.044762780709295395 ; STS 
 11962789 348.279999 0.129193 ; ABS 
 11962794 348.279999 0.02038566501133589 ; AB 
 11962811 348.660004 0.0 ; ABS 
 11962816 348.660004 0.0 ; AB 
 11962820 349.089996 0.6728096991217494 ; AB 
 11962829 349.089996 0.0 ; AB 
 11962833 349.089996 0.07319025356163321 ; ABS 
 11962838 349.709991 0.017147 ; AB 
 11962842 349.709991 0.569067 ; AB 
 11962856 349.709991 0.223894 ; AB 
 11962875 350.549988 0.5424364272958345 ; AB 
 11962973 351.375 0.1046951000715755 ; STS 
 11963049 351.350006 0.0 ; STS 
 12001747 358.160004 0.21612452914057612 ; AB 
 12001868 351.19101 0.18405564469832109 ; AB 
 12001877 351.213989 0.4959358555066013 ; AB 
 12001919 352.438995 0.0 ; AB 
 12002005 352.694 0.19619599999999998 ; AB 
 12002117 357.170013 0.0776660045565025 ; AB 
 12002220 354.73999 0.05250199818026707 ; AB 
 12002256 356.679993 0.0 ; ABS 
 12002559 360.27301 0.7566485328526358 ; AB 
 12002599 361.470001 0.131237 ; AB 
 12002622 361.470001 0.17774870275276217 ; ABS 
 12002667 360.244995 0.15395655615840806 ; AB 
 12002676 360.244995 0.34177965450304465 ; AB 
 12002699 360.328003 0.09549820678031751 ; AB 
 12002721 359.899994 0.2390142377882641 ; AB 
 12002783 356.809998 0.41739738362997814 ; AB 
 12002797 357.119995 0.011299957433612829 ; AB 
 12003240 350.516998 0.02644844484050293 ; AB 
 12003331 351.480011 1.0797359705203358 ; AB 
 12003379 350.559998 0.12464228011241381 ; STS 
 12003415 354.802002 0.005738621592930578 ; ABS 
 12003420 354.733002 0.0 ; AB 
 12003434 354.875 0.005610507176292266 ; AB 
 12003438 354.875 0.0 ; ABS 
 12003443 354.875 0.11840675231150596 ; AB 
 12003554 353.079987 0.4824350199821617 ; AB 
 12003563 353.98999 0.5222769650691823 ; AB 
 12003664 354.755005 0.10279969875891176 ; AB 
 12003673 354.862 0.1319491650517411 ; AB 
 12003695 354.660004 0.31641840004646055 ; AB 
 12003921 352.709991 0.029281 ; AB 
 12042741 350.371002 0.583839 ; AB 
 12043003 347.529999 0.406109 ; AB 
 12043452 347.859985 0.096944 ; ABS 
 12043798 353.029999 0.0 ; AB 
 12043922 350.5 0.18380315936290742 ; AB 
 12043936 350.5 0.0 ; ABS 
 12044074 349.630005 0.06456794815050171 ; AB 
 12062415 357.204987 0.5656480105410615 ; AB 
 12062486 356.660004 0.24382561387956386 ; AB 
 12062549 361.140015 0.0 ; AB 
 12062553 361.140015 0.26712502605526856 ; ABS 
 12062627 362.269989 0.7642784135190175 ; AB 
 12062667 360.970001 0.29841176337141384 ; AB 
 12063048 356.890015 0.36011932768554267 ; STS 
 12063086 355.779999 0.24575326940089395 ; AB 
 12063100 357.019989 0.7907581481298869 ; AB 
 12075495 362.519989 0.027812442050379103 ; AB 
 12075562 362.920013 0.017128902110255324 ; AB 
 12075581 363.170013 0.28858085845348064 ; AB 
 12075878 366.299988 0.407257905385492 ; AB 
 12075882 366.299988 0.05911221997797151 ; ABS 
 12075989 366.049988 0.0 ; AB 
 12076011 365.019989 0.7600027730985442 ; STS 
 12498991 368.959991 0.17943500577337937 ; AB 
 12499009 367.860992 5.1621596226334464e-05 ; AB 
 12499013 367.709991 0.102154 ; AB 
 12499022 372.359985 0.1286901855629899 ; AB 
 12499140 368.23999 0.0 ; AB 
 12499274 365.881989 0.4670257551429203 ; AB 
 12499449 363.033997 0.0027323635842066546 ; AB 
 12499477 364.178009 0.7354236327179206 ; AB 
 12499575 361.959991 0.266497 ; AB 
 12499685 366.059998 0.2103990077794121 ; AB 
 12499736 367.140991 0.0712513458987985 ; AB 
 12499774 367.585999 6.000809578994741e-05 ; AB 
 12499803 367.56601 0.22624534389791756 ; AB 
 12499863 367.678986 0.28548050203499475 ; AB 
 12499906 369.260986 0.06813683319001371 ; AB 
 12499923 369.429993 0.419497 ; AB 
 12500124 367.540009 0.12484821526905651 ; AB 
 12551464 361.640015 0.2788980036978729 ; AB 
 12551468 361.640015 0.0 ; ABS 
 12551622 362.589996 0.03877553420297875 ; AB 
 12551756 364.580994 0.27680744693554643 ; AB 
 12551859 366.156006 0.8649692039170767 ; STS 
 12552128 361.632996 0.03544917443864366 ; AB 
 12552211 361.347992 0.23837778153645114 ; AB 
 12552361 362.700012 0.005454065851486252 ; ABS 
 12552637 361.630005 0.0 ; STS 
 12552685 360.910004 0.19804944708061006 ; AB 
 12552708 362.544006 0.17764588032450768 ; AB 
 12569759 369.872986 0.003282574167408772 ; AB 
 12569830 369.993011 0.39641316454158065 ; AB 
 12570276 367.679993 0.5900139922205878 ; AB 
 12570280 367.679993 0.0 ; SES 
 12570299 366.73999 0.082567 ; AB 
 12587228 381.809998 0.0 ; STS 
 12606857 366.819 0.021816046301407058 ; AB 
 12606861 366.819 0.0 ; AB 
 12606883 366.787994 0.047258244846258415 ; AB 
 12714684 358.700012 0.666411683629289 ; AB 
 12714895 362.700012 0.19930153236072695 ; AB 
 12714965 363.079987 0.015005393869167764 ; AB 
 12715079 358.700012 0.35200973635904154 ; AB 
 12715111 361.369995 0.09034515848341261 ; AB 
 12715125 361.390015 0.20847043475407834 ; AB 
 12715495 363.929993 0.0009939460488475574 ; AB 
 12715499 363.929993 0.0018571265744002244 ; AB 
 12715517 363.880005 0.019521 ; AB 
 12715539 364.329987 0.0002049141475997923 ; AB 
 12715632 363.640015 0.0 ; AB 
 12715636 363.640015 0.7830812878839244 ; ABS 
 12715698 360.589996 0.007932323837682996 ; ABS 
 12715848 360.786987 0.07129 ; AB 
 12715985 360.609985 0.0 ; AB 
 12715989 360.609985 0.17791104357752213 ; ABS 
 12716007 360.009003 0.123653 ; AB 
 12716011 360.009003 0.1610619564224779 ; ABS 
 12716016 360.131012 0.09742318902417002 ; AB 
 12716087 360.471985 0.0 ; AB 
 12716091 360.471985 0.0 ; ABS 
 12716383 361.450012 0.09358446253584046 ; AB 
 12716410 361.730011 0.05763155291938993 ; AB 
 12716451 360.01001 0.0 ; AB 
 12716620 357.299988 0.0683928676955524 ; STS 
 12744283 370.730011 0.03453686987707257 ; AB 
 12744417 370.480011 0.025740130122927425 ; AB 
 12744491 369.17099 0.054262472864827604 ; AB 
 12744715 366.255005 0.018927 ; AB 
 12744728 365.729004 0.048736 ; AB 
 12744864 364.980011 0.653744 ; AB 
 12744868 364.980011 0.0034188734255997757 ; AB 
 12744957 364.302002 0.16535651798962903 ; AB 
 12744999 362.839996 0.27665864217945946 ; AB 
 12745099 362.76001 0.019947390295039776 ; AB 
 12745141 364.100006 0.07000121872748309 ; AB 
 12745188 363.649994 0.2133100624936003 ; AB 
 12745197 364.26001 0.21603908585240023 ; AB 
 12745224 371.149994 0.0 ; AB 
 12838013 331.079987 0.2274268727008662 ; AB 
 12838072 331.01001 0.15854090886067623 ; AB 
 12838086 330.859985 0.04307656387089944 ; AB 
 12838090 331.440002 0.1331232833818853 ; AB 
 12838136 331.390015 0.03075430625071155 ; AB 
 12838315 330.98999 0.2720043170011964 ; AB 
 12838393 330.529999 0.09008055701589127 ; AB 
 12838411 330.309998 0.4036577460524924 ; AB 
 12838415 330.410004 0.009431 ; ABS 
 12838425 330.410004 0.020280446714831854 ; AB 
 12838489 329.359985 0.10444344057192448 ; AB 
 13040768 355.049988 0.4751659638924312 ; AB 
 13040830 354.679993 0.011013 ; STS 
 13040881 355.019989 0.010155905838178261 ; AB 
 13040975 354.76001 0.7150573458608724 ; AB 
 13042359 356.369995 0.0 ; AB 
 13042398 356.585999 0.0 ; AB 
 13042420 356.369995 0.3326008301101959 ; AB 
 13042448 357.174011 1.2371549385732905 ; AB 
 13042728 354.070007 0.04137237122893148 ; AB 
 13042869 356.964996 0.3504341920492396 ; STS 
 13143556 350.5 0.010134058230076714 ; STS 
 13311315 350.170013 0.045128142598491204 ; STS 
 13336738 358.339996 0.0 ; AB 
 13336775 358.390015 0.0 ; AB 
 13336793 358.329987 0.0 ; AB 
 13356223 362.420013 0.18030833391459794 ; AB 
 13356310 363.709991 0.29528374676595065 ; AB 
 13364506 386.380005 0.0 ; AB 
 13364624 385.540009 0.025261241270505053 ; AB 
 13383061 368.660004 0.0 ; AB 
 13383069 368.660004 0.0 ; AB 
 13473902 344.26001 0.5930278076638653 ; AB 
 13474621 344.549988 0.1569523683787377 ; AB 
 13578935 351.769989 0.20987727687397473 ; AB 
 13592153 345.119995 0.26537668894826427 ; AB 
 13592572 344.700012 0.37783797860969526 ; AB 
 13656901 358.519989 0.0 ; ABS 
 13775996 371.309998 0.4589485883897777 ; AB 
 13898398 366.390015 0.0 ; ABS 
 13898416 366.369995 0.4967643912699548 ; AB 
 13898687 368.720001 0.21844460873004526 ; AB 
 13921199 361.089996 0.139942 ; AB 
 13921203 360.730011 0.0 ; AB 
 13921301 362.209991 0.0 ; AB 
 13932791 339.26001 0.029351248693398682 ; AB 
 13932925 339.369995 0.13337810594302524 ; AB 
 13933185 339.920013 0.20178128121122507 ; AB 
 13933227 339.670013 0.004699238025871472 ; AB 
 13933257 339.690002 0.0068279904042329205 ; AB 
 13940821 349.369995 1.0089880330091752e-05 ; STS 
 13958031 358.920013 0.0 ; AB 
 13961367 376.380005 0.584433 ; AB 
 13962019 365.910004 0.0 ; AB 
 13962231 361.350006 0.0 ; STS 
 13962288 361.529999 0.0 ; AB 
 13962292 361.51001 0.0 ; AB 
 13966446 335.51001 0.0 ; AB 
 14230391 361.940002 0.0 ; AB 
 14230564 361.420013 0.0 ; AB 
 14230576 361.529999 0.0 ; AB 
 14239156 400.429993 0.0 ; AB 
 14239201 401.600006 0.0 ; AB 
 14342278 366.630005 0.532993 ; AB 
 15578076 370.089996 0.0 ; AB 
 15580984 358.390015 0.098856 ; ABS 
 15809654 360.929993 0.0 ; AB 
 15816338 358.670013 0.0 ; AB 
 15816360 359.459991 0.0 ; AB 
 15821991 349.570007 0.018460051849498293 ; AB 
 15839157 358.690002 0.0 ; AB 
 15839170 358.73999 0.30570661806366056 ; ABS 
 15853539 360.880005 0.039701 ; AB 
 16495596 349.640015 0.0 ; AB 
 16495724 347.910004 0.5710884434475475 ; AB 
 16495977 347.98999 0.006454753240883014 ; AB 
 16496074 347.429993 0.0 ; AB 
 16496100 347.299988 0.18152355646012636 ; AB 
 16496216 347.059998 0.0742563934309125 ; AB 
 16496370 346.660004 0.7020590567021323 ; AB 
 16496602 346.119995 0.0 ; AB 
 16499934 376.130005 0.00010880541194499335 ; AB 
 17437828 356.029999 0.17704185673652906 ; AB 
 17437969 353.970001 0.4675361432634709 ; ABS 
 17449674 349.230011 0.5025458123287365 ; STS 
 17450196 358.60199 0.11475 ; STS 
 17547618 358.640015 0.0 ; AB 
 17642472 350.670013 0.5302680912110201 ; STS 
 17642889 350.119995 0.23929434793902962 ; AB 
 17772026 344.769989 0.0 ; AB 
 17772047 344.76001 0.0 ; AB 
 18691544 363.170013 0.15775185360683058 ; ABS 
 18714005 352.380005 0.23939443650003 ; AB 
 18758543 353.709991 0.027503227234657816 ; AB 
 18758753 354.859985 0.11138377276534217 ; AB 
 18761343 350.070007 0.004160961408759402 ; AB 
 18835627 345.859985 0.0 ; ABS 
 18835694 346.420013 0.07479905532853455 ; AB 
 18835755 346.100006 0.17159057625737434 ; AB 
 18835844 346.48999 0.0 ; ABS 
 18835849 346.480011 2.3582668571276426 ; ABS 
 18835854 346.48999 0.28697198552931846 ; ABS 
 18835859 346.440002 0.0 ; AB 
 18835968 346.940002 0.8603114988074738 ; AB 
 18836119 347.140015 0.00022636024154343558 ; AB 
 18836213 347.339996 0.4427667631110291 ; AB 
 18836308 347.859985 0.00027106798868833866 ; AB 
 18836312 347.869995 0.2758175430668885 ; AB 
 18836538 349.609985 0.0 ; AB 
 18836589 349.48999 0.0 ; AB 
 18845795 346.429993 0.10473242374262566 ; ABS 
 18889714 374.230011 0.11995900000000001 ; AB 
 18929956 350.369995 0.0 ; AB 
 19447972 350.380005 0.0 ; AB 
 19448139 349.019989 0.0 ; AB 
 19471278 348.720001 0.002613644613848094 ; ABS 
 19501609 365.369995 0.0 ; AB 
 19506683 350.029999 0.0 ; AB 
 19506696 350.029999 0.42935879042569997 ; AB 
 19506954 355.880005 1.0704352095743004 ; AB 
 19506974 356.0 0.0 ; AB 
 19509731 363.859985 0.2070011215872057 ; AB 
 19509834 363.109985 0.0017641567811099606 ; AB 
 19510018 361.876007 0.02816 ; AB 
 19607872 361.290009 0.037656 ; AB 
 19608685 352.700012 0.021106102002354733 ; AB 
 19654160 362.130005 0.04064327501645162 ; ABS 
 19654166 362.130005 0.0 ; ABS 
 19687938 341.73999 0.0 ; AB 
 19712765 349.0 1.8317147425849218 ; AB 
 19712800 348.98999 0.44597381434295885 ; AB 
 19712931 348.450012 0.0017491856570411117 ; AB 
 19712966 348.320007 0.30762030670599017 ; AB 
 19713081 348.390015 2.769329400984996e-05 ; AB 
 19713085 348.399994 1.133877357952103 ; AB 
 19713403 348.619995 0.1488806420478966 ; AB 
 19713430 348.640015 0.0 ; AB 
 19713479 348.690002 0.0 ; AB 
 19713514 348.679993 0.65546653657663 ; AB 
 19713685 346.549988 0.001443463423369915 ; AB 
 19731114 342.342987 0.046625 ; ABS 
 19912438 352.420013 0.0 ; AB 
 19912573 352.109985 0.0 ; AB 
 19912727 351.769989 0.0 ; AB 
 19912978 350.98999 0.0 ; AB 
 19913089 350.459991 0.0 ; AB 
 19925825 343.019989 0.0 ; AB 
 19925837 343.079987 0.0 ; AB 
 19925906 342.959991 0.20425712652806205 ; AB 
 19940526 359.709991 0.0 ; AB 
 19956173 358.98999 0.07421864155438283 ; ABS 
 19956178 358.98999 0.6565499708761744 ; AB 
 19957714 356.170013 0.2716776310869811 ; AB 
 19958119 358.410004 0.8430176116811945 ; AB 
 19958304 359.25 0.003988455896819451 ; AB 
 19958562 358.339996 0.0 ; STS 
 19958571 358.390015 0.10086123768902286 ; AB 
 19958580 358.369995 0.0 ; STS 
 19963552 359.25 0.00018352418457019006 ; AB 
 1_1001 357.380005 0.0010299561989292158 
 1_1002 357.380005 0.008405360873072568 
 1_1003 365.040009 0.0 
 1_1004 364.23999 0.011277 
 1_1005 364.25 0.313848 
 1_1006 362.312988 0.0 
 1_1007 345.600006 0.8777340109008319 
 1_1008 362.304993 0.398261 
 1_1016 366.049988 0.11849854158982864 
 1_1017 355.829987 0.077885 
 1_102 365.959991 0.0 
 1_1022 358.579987 0.0 
 1_1024 353.440002 0.0 
 1_1025 355.190002 0.1628750703057313 
 1_1026 367.468994 0.20631532500959684 
 1_1027 353.390015 0.40213368434968916 
 1_1035 361.071014 0.0 
 1_1036 361.063995 0.010816 
 1_1039 347.089996 0.33249724325349117 
 1_1040 364.778992 0.18375525158269507 
 1_1041 364.786011 0.004419 
 1_1043 347.089996 0.05111 
 1_1047 371.299988 0.15669938648903636 
 1_1049 362.73999 0.0 
 1_1061 360.812012 0.0 
 1_1064 351.700012 0.11214825572914171 
 1_1065 362.820007 0.1409037815403048 
 1_1068 360.519989 0.0 
 1_1069 363.480011 0.0 
 1_1070 363.359985 0.0 
 1_1072 359.190002 0.0 
 1_1073 360.829987 0.067927 
 1_1074 361.029999 0.020114 
 1_1076 358.429993 0.0 
 1_1077 358.420013 0.003693 
 1_1078 359.059998 0.0 
 1_1079 358.299988 0.1788876391269274 
 1_1080 358.209991 0.006463 
 1_1082 358.209991 0.038778 
 1_1085 355.0 0.08080392969426868 
 1_1088 370.079987 0.08628447861766977 
 1_1089 348.600006 0.18697489522176725 
 1_1090 365.98999 0.35689939956972955 
 1_1092 347.058014 0.292019 
 1_1095 353.290009 0.035787370355577997 
 1_1096 353.290009 0.006397 
 1_1098 369.959991 0.001715 
 1_1099 369.980011 0.30693058304846027 
 1_1100 370.01001 0.012596651041757093 
 1_1101 370.390015 0.0007253489582429068 
 1_1103 353.040009 0.307582 
 1_1105 364.100006 0.144756 
 1_1106 364.119995 0.0 
 1_1109 357.410004 0.0019285212884733462 
 1_1112 352.420013 0.022776111483906562 
 1_1113 355.859985 0.09021893037380906 
 1_1114 355.869995 0.074653 
 1_1122 360.600006 0.0 
 1_1125 361.459991 0.07688932946249732 
 1_1126 361.03299 0.3509234719534384 
 1_1127 354.910004 0.09964911832989913 
 1_1128 361.036987 0.0 
 1_1130 354.920013 0.052165 
 1_1137 354.890015 0.015542666422405066 
 1_1139 361.200012 0.08730658961798739 
 1_1143 362.690002 0.20289802299224524 
 1_1144 370.649994 0.04054265773020446 
 1_1145 370.619995 0.0 
 1_1147 370.600006 0.010229759221335254 
 1_1149 370.600006 0.0 
 1_1150 362.670013 0.8386446457010575 
 1_1152 363.230011 0.0007790307747891079 
 1_1154 369.830994 0.020642 
 1_1155 369.830994 0.01807 
 1_1156 364.049988 0.9316596100145147 
 1_1157 364.070007 0.0 
 1_1158 363.98999 0.0 
 1_1159 363.980011 0.0 
 1_1160 363.98999 0.095295 
 1_1161 369.699005 0.04230294084850518 
 1_1163 360.369995 0.009101 