[TITLE]
DESCRIPTION


[JUNCTIONS]
;id elevation demand demandpattern
10141613 364.339996 0.0 ; AB 
 10446399 359.440002 0.0 ; AB 
 10459656 361.640015 0.0 ; AB 
 10666429 361.890015 0.0 ; AB 
 10673702 357.640015 0.3195581073855259 ; AB 
 11356917 346.317993 0.0 ; AB 
 11357843 346.950012 0.5552094976683508 ; AB 
 11357847 346.649994 0.072939 ; AB 
 11358472 346.321014 0.4919181298856718 ; AB 
 11358508 347.799011 0.0 ; AB 
 11358604 345.957001 0.0 ; AB 
 13040768 355.049988 0.4751659638924312 ; AB 
 13040830 354.679993 0.011013 ; STS 
 13040881 355.019989 0.010155905838178261 ; AB 
 13040975 354.76001 0.7150573458608724 ; AB 
 13042359 356.369995 0.0 ; AB 
 13042398 356.585999 0.0 ; AB 
 13042420 356.369995 0.3326008301101959 ; AB 
 13042448 357.174011 1.2371549385732905 ; AB 
 13042728 354.070007 0.04137237122893148 ; AB 
 13042869 356.964996 0.3504341920492396 ; STS 
 13143556 350.5 0.010134058230076714 ; STS 
 13336738 358.339996 0.0 ; AB 
 13336775 358.390015 0.0 ; AB 
 13336793 358.329987 0.0 ; AB 
 13364506 386.380005 0.0 ; AB 
 13364624 385.540009 0.025261241270505053 ; AB 
 13383061 368.660004 0.0 ; AB 
 13383069 368.660004 0.0 ; AB 
 13656901 358.519989 0.0 ; ABS 
 13958031 358.920013 0.0 ; AB 
 15578076 370.089996 0.0 ; AB 
 16499934 376.130005 0.00010880541194499335 ; AB 
 18691544 363.170013 0.15775185360683058 ; ABS 
 18889714 374.230011 0.11995900000000001 ; AB 
 19501609 365.369995 0.0 ; AB 
 19506683 350.029999 0.0 ; AB 
 19506696 350.029999 0.42935879042569997 ; AB 
 19506954 355.880005 1.0704352095743004 ; AB 
 19506974 356.0 0.0 ; AB 
 19510018 361.876007 0.02816 ; AB 
 19607872 361.290009 0.037656 ; AB 
 19608685 352.700012 0.021106102002354733 ; AB 
 19713685 346.549988 0.001443463423369915 ; AB 
 1_1003 365.040009 0.0 
 1_1004 364.23999 0.011277 
 1_1005 364.25 0.313848 
 1_1006 362.312988 0.0 
 1_1008 362.304993 0.398261 
 1_1016 366.049988 0.11849854158982864 
 1_102 365.959991 0.0 
 1_1022 358.579987 0.0 
 1_1026 367.468994 0.20631532500959684 
 1_1035 361.071014 0.0 
 1_1036 361.063995 0.010816 
 1_1040 364.778992 0.18375525158269507 
 1_1041 364.786011 0.004419 
 1_1047 371.299988 0.15669938648903636 
 1_1049 362.73999 0.0 
 1_1061 360.812012 0.0 
 1_1065 362.820007 0.1409037815403048 
 1_1068 360.519989 0.0 
 1_1069 363.480011 0.0 
 1_1070 363.359985 0.0 
 1_1073 360.829987 0.067927 
 1_1074 361.029999 0.020114 
 1_1088 370.079987 0.08628447861766977 
 1_1090 365.98999 0.35689939956972955 
 1_1098 369.959991 0.001715 
 1_1099 369.980011 0.30693058304846027 
 1_1100 370.01001 0.012596651041757093 
 1_1101 370.390015 0.0007253489582429068 
 1_1105 364.100006 0.144756 
 1_1106 364.119995 0.0 
 1_1122 360.600006 0.0 
 1_1125 361.459991 0.07688932946249732 
 1_1126 361.03299 0.3509234719534384 
 1_1128 361.036987 0.0 
 1_1139 361.200012 0.08730658961798739 
 1_1143 362.690002 0.20289802299224524 
 1_1144 370.649994 0.04054265773020446 
 1_1145 370.619995 0.0 
 1_1147 370.600006 0.010229759221335254 
 1_1149 370.600006 0.0 
 1_1150 362.670013 0.8386446457010575 
 1_1152 363.230011 0.0007790307747891079 
 1_1154 369.830994 0.020642 
 1_1155 369.830994 0.01807 
 1_1156 364.049988 0.9316596100145147 
 1_1157 364.070007 0.0 
 1_1158 363.98999 0.0 
 1_1159 363.980011 0.0 
 1_1160 363.98999 0.095295 
 1_1161 369.699005 0.04230294084850518 
 1_1163 360.369995 0.009101 
 1_1166 369.653992 0.021565 
 1_1168 361.018005 0.0 
 1_1169 364.649994 0.2704606470109468 
 1_1170 364.670013 0.04737274913885682 
 1_1172 365.320007 0.0039025724701561657 
 1_1182 366.548004 0.0 
 1_1185 366.170013 0.014377 
 1_1186 366.149994 0.149373 
 1_1187 366.160004 0.08520257119308583 
 1_1188 368.920013 0.0 
 1_1190 365.606995 0.27287374509390805 
 1_1191 368.920013 0.07029474644192413 
 1_1195 368.899994 0.33172625355807583 
 1_1197 369.209991 0.07396286527322028 
 1_1200 362.730011 0.123521 
 1_1204 362.700012 0.026181 
 1_1212 363.950012 0.051967 
 1_1213 356.923004 0.006397347337070879 
 1_1214 363.950012 0.6277275962604424 
 1_1216 362.630005 0.032249 
 1_1218 362.630005 0.062717 
 1_1225 369.138 0.156759 
 1_1227 362.679993 0.2938274520356403 
 1_1229 362.679993 0.1785585479643597 
 1_1231 369.130005 0.0 
 1_1234 363.850006 0.2738318777699731 
 1_1236 369.01001 0.0 
 1_1240 369.078003 0.039173 
 1_1246 362.670013 0.027632 
 1_1247 368.820007 0.0 
 1_1248 362.660004 0.092196 
 1_1255 366.299988 0.004553428806914168 
 1_1256 366.290009 0.1377 
 1_1257 366.299988 0.0 
 1_1258 369.100006 0.02802280009564016 
 1_1268 358.040009 0.3823618051716094 
 1_1272 367.566986 0.2364079927770631 
 1_1275 367.149994 0.0 
 1_1277 367.149994 0.0 
 1_1281 366.73999 0.158803 
 1_1282 366.809998 0.0 
 1_1283 366.73999 0.0 
 1_1284 366.619995 0.0 
 1_1285 366.630005 0.0 
 1_1290 366.390015 0.07766568202279696 
 1_1291 366.359985 0.07764231797720303 
 1_1293 359.175995 0.0 
 1_1296 367.450012 0.07785866999322945 
 1_1297 366.850006 0.043633347763013 
 1_1298 362.5 1.686681163162966e-05 
 1_1299 359.459991 0.033574357113803605 
 1_1300 359.450012 0.0 
 1_1301 366.299988 0.0 
 1_1302 366.299988 0.0 
 1_1304 359.222992 0.0 
 1_1307 359.399994 0.0 
 1_1308 366.809998 0.0018716522369870007 
 1_1309 366.809998 0.006595 
 1_1310 368.483002 0.22078954181848348 
 1_1316 363.320007 0.027566 
 1_1320 359.350006 0.038809803997763834 
 1_1330 356.209991 0.0 
 1_1344 365.592987 0.06656946879062253 
 1_1348 365.60199 0.003957 
 1_1349 363.670013 0.041943 
 1_1350 363.670013 0.027039 
 1_1356 358.369995 0.018268 
 1_1359 365.953003 0.018761391944220218 
 1_1362 356.779999 0.0 
 1_1365 364.837006 0.013387 
 1_1378 364.381989 0.013585 
 1_1380 365.608002 0.014443 
 1_1382 363.100006 0.758668 
 1_1383 365.608002 0.0 
 1_1385 363.130005 0.0 
 1_1386 363.119995 0.0018729472080191553 
 1_1389 365.579987 0.0 
 1_1390 365.540009 0.009395998741644365 
 1_1394 364.951996 0.022422 
 1_1404 364.540009 0.20231807700047016 
 1_1413 364.839996 0.0770370232095148 
 1_1415 363.369995 0.090481 
 1_1417 363.399994 0.0 
 1_1418 363.350006 0.0023797992981253535 
 1_1441 364.899994 0.1597542898775236 
 1_1463 365.720001 0.749502021172148 
 1_1469 362.846985 0.256011 
 1_1472 362.76001 0.210639 
 1_1473 362.76001 0.0 
 1_1474 361.549988 0.22203748464232265 
 1_1475 361.559998 0.0 
 1_1478 363.410004 0.0 
 1_1488 365.660004 0.0 
 1_1491 365.559998 0.0 
 1_1492 365.48999 0.1736208033405548 
 1_1493 365.630005 0.0 
 1_1494 365.959991 0.0 
 1_1509 362.484985 0.48299541742193874 
 1_1527 363.23999 0.0 
 1_1560 356.653015 0.2694197675871789 
 1_1561 373.372986 0.0 
 1_1562 373.372986 0.0032142125421000247 
 1_1563 365.179993 1.2058357101224764 
 1_1565 373.372986 0.049065 
 1_1601 365.192993 0.0 
 1_1603 361.696014 0.0 
 1_1609 357.266998 0.0 
 1_1615 356.872009 0.020378 
 1_1626 361.313995 0.0 
 1_164 368.040009 0.005145685404728904 
 1_1645 356.266998 0.0 
 1_1651 356.131012 0.05356793660144304 
 1_167 367.670013 0.00019631459527109718 
 1_1675 364.769989 0.0015689399944813366 
 1_1679 372.420013 0.029454313524247835 
 1_1680 372.420013 0.02306698709011508 
 1_1696 360.75 6.11987984088643e-05 
 1_1697 359.549988 0.1853138453387115 
 1_1700 364.279999 0.0 
 1_1702 362.73999 0.3680771095481135 
 1_1705 362.850006 0.0 
 1_1712 362.850006 0.3656734894118764 
 1_1715 364.82901 0.09820683002102781 
 1_1720 356.786011 0.353285 
 1_1724 359.369995 0.0 
 1_1725 363.929993 0.370353457006218 
 1_1731 371.850006 0.0094713559224117 
 1_1733 363.619995 0.900391 
 1_1735 363.619995 0.0007302643271556733 
 1_1738 361.709991 0.0 
 1_1740 371.519989 0.05321273440773724 
 1_1741 371.480011 0.08583377443322568 
 1_1745 361.630005 0.0 
 1_1746 361.660004 0.00033 
 1_1751 361.459991 0.0 
 1_1752 361.579987 0.0 
 1_1755 361.589996 0.0 
 1_1756 361.589996 0.0 
 1_1778 359.329987 0.0 
 1_178 378.269989 0.07982933474956974 
 1_180 378.119995 0.0 
 1_181 364.140015 0.12670539543663326 
 1_1824 364.084015 0.24282752992261103 
 1_1837 355.429993 0.05338963611720171 
 1_1838 353.782013 0.701965676066989 
 1_184 376.640015 0.0 
 1_1845 353.826996 0.008046 
 1_1846 362.640015 0.0 
 1_1847 362.720001 0.0 
 1_1849 353.779999 0.0 
 1_185 376.649994 0.3928967532788621 
 1_1851 353.779999 0.065816 
 1_1863 355.315002 0.0 
 1_1868 353.070007 2.0857864038990948 
 1_1869 353.070007 0.0 
 1_1873 362.149994 0.0 
 1_1879 361.98999 0.0 
 1_1885 359.940002 0.1140945394522599 
 1_1886 359.859985 0.0006108695104348123 
 1_1887 353.475006 0.01035868424887448 
 1_1898 353.585999 0.05136831575112552 
 1_1901 359.548004 0.039635 
 1_1902 359.519989 0.04186013048956518 
 1_1903 362.160004 0.39679924626153 
 1_1904 359.769989 0.055001 
 1_1906 362.160004 0.6944866457172724 
 1_1909 362.549988 0.006793 
 1_191 365.299988 0.0 
 1_1914 361.950012 0.0 
 1_1915 363.320007 0.179643 
 1_1916 361.929993 0.7205034711538671 
 1_1925 362.920013 0.0 
 1_1929 359.929993 0.0 
 1_1930 359.970001 0.3193502906434491 
 1_1937 360.209991 0.0 
 1_1944 354.670013 0.16013336782400248 
 1_1947 361.279999 0.0 
 1_1948 360.239014 0.236556 
 1_1949 374.970001 0.05719310805942051 
 1_1950 374.959991 0.020378 
 1_1954 353.381012 0.005606 
 1_1956 363.299988 0.08127842935269405 
 1_1959 375.299988 0.033788194588055015 
 1_1960 353.399994 0.03337 
 1_1961 353.399994 0.0028965185851944635 
 1_1966 361.109985 0.07498624790872285 
 1_1969 360.279999 0.155902 
 1_1971 360.720001 0.081116 
 1_1972 360.700012 0.0 
 1_1975 360.769989 0.0 
 1_1976 360.769989 0.078215 
 1_1981 361.570007 0.20937881558942806 
 1_1984 353.256989 0.029215 
 1_1988 354.174988 0.9912913086566324 
 1_1989 353.170013 0.31024046290584784 
 1_1990 353.170013 0.11494449564116654 
 1_1993 356.769989 0.3021646196396923 
 1_2010 353.140015 0.036008 
 1_2015 358.559998 0.31626409230101965 
 1_2021 360.967987 0.0 
 1_2022 360.967987 0.0 
 1_2023 360.75 0.0 
 1_2038 360.480011 0.026129785008810615 
 1_2039 360.809998 0.0 
 1_2040 352.558014 0.011236882745145492 
 1_2041 363.091003 0.007914 
 1_2042 352.558014 0.0 
 1_2043 363.091003 0.0 
 1_2044 352.600006 0.12068289799764526 
 1_2045 352.670013 0.013981 
 1_2046 352.690002 1.3971303575790004 
 1_2047 360.01001 0.0428 
 1_2048 363.26001 0.0 
 1_2049 360.0 0.0 
 1_2051 363.23999 0.0 
 1_2054 352.899994 0.06302461731835417 
 1_2055 358.329987 0.34092694686312397 
 1_2056 356.447998 0.0 
 1_2058 360.005005 0.0 
 1_2059 360.024994 0.057398003697231595 
 1_2060 356.541992 0.00010564269823416103 
 1_2061 360.001007 0.008375 
 1_2064 360.855988 0.3914104649084367 
 1_2067 360.869995 0.12204169714262124 
 1_2071 360.130005 0.0 
 1_2076 352.690002 0.17877031554031875 
 1_2078 352.700012 0.1020171444231782 
 1_2079 359.980011 0.26236523295806724 
 1_2081 359.975006 0.9146902772568108 
 1_2083 355.660004 0.0 
 1_2087 355.559998 0.21288688023808022 
 1_2088 359.860992 0.001451 
 1_2089 359.790985 0.08072566175802352 
 1_2093 352.48999 0.0 
 1_2097 352.48999 0.3204906424209994 
 1_2100 360.71701 0.22703428044234625 
 1_2103 355.5 0.0 
 1_2104 355.429993 0.500349 
 1_2108 352.790009 0.1987167434926113 
 1_2111 356.481995 0.004840357301765839 
 1_2112 359.911011 0.166387 
 1_2113 356.481995 0.04147397800543695 
 1_2117 359.911011 0.3245746957732683 
 1_2119 352.380005 0.180236 
 1_2120 352.690002 0.151417 
 1_2127 352.559998 0.0 
 1_2129 352.329987 0.0 
 1_2133 361.109985 0.096614 
 1_2134 357.907013 0.29074969366432524 
 1_2137 363.519989 0.0 
 1_2141 363.75 0.0 
 1_2144 352.170013 0.0 
 1_2146 352.51001 0.0 
 1_2149 359.789001 0.03827230422673169 
 1_2150 352.190002 0.090811 
 1_2152 352.470001 0.0 
 1_2153 361.309998 0.02027430285737875 
 1_2156 359.752991 0.0 
 1_2157 361.309998 0.1418260389352182 
 1_2158 351.76001 0.0 
 1_2163 351.600006 0.0 
 1_2171 346.579987 1.0797796384491911 
 1_2177 344.730011 0.2413419967203156 
 1_2178 344.769989 0.166585 
 1_2179 348.029999 0.3324758555426495 
 1_2184 348.190002 0.0 
 1_2185 351.559998 0.0 
 1_2186 348.200012 0.018401776970319052 
 1_2187 351.589996 0.0 
 1_2211 345.320007 0.147394 
 1_2222 346.320007 0.10459580847864174 
 1_2223 345.420013 0.100307 
 1_2224 345.410004 0.0 
 1_2228 345.51001 0.0 
 1_2230 345.48999 0.285622 
 1_2235 348.73999 0.0 
 1_2238 348.799988 0.0006802653138726579 
 1_2245 348.160004 0.05836798925021644 
 1_2248 346.769989 0.0 
 1_2255 347.040009 0.3641250803290822 
 1_2259 347.040009 1.6899040300233108 
 1_2267 348.160004 0.22083337085345384 
 1_227 362.570007 0.05566 
 1_2270 348.119995 0.0 
 1_2271 346.119995 0.299075 
 1_2272 346.130005 0.0 
 1_2278 348.839996 0.29432681985522186 
 1_228 362.559998 0.0 
 1_2288 348.429993 0.4164543184502715 
 1_2289 348.640015 0.10551522302968094 
 1_2291 348.630005 0.0 
 1_2292 348.540009 0.0011361397925875138 
 1_2293 348.640015 0.0 
 1_2298 348.190002 0.1494238602074125 
 1_2308 348.720001 0.2512172685922486 
 1_2317 349.079987 0.0 
 1_2318 347.220001 0.022339775868058513 
 1_2319 349.089996 0.0 
 1_2321 348.299988 0.122136 
 1_2332 355.807007 0.14674383011311037 
 1_2336 354.410004 0.6052023418483996 
 1_2337 357.238007 0.0 
 1_2339 356.20401 0.0 
 1_2341 362.746002 0.19274097558158265 
 1_2343 362.743988 0.0 
 1_236 363.321991 0.1972365207591198 
 1_2361 357.765015 0.16805903753087628 
 1_2366 358.279999 0.0 
 1_2368 358.299988 0.0 
 1_237 364.970001 0.005474 
 1_2370 360.880005 0.0 
 1_2375 354.890015 0.14660729872346429 
 1_2378 354.950012 0.6638773748412186 
 1_238 363.089996 0.020576 
 1_2381 360.98999 0.0 
 1_2383 360.959991 0.0 
 1_2384 360.970001 0.0 
 1_2385 360.98999 0.09223800503253399 
 1_2386 358.380005 0.0 
 1_2387 360.649994 0.0 
 1_239 363.619995 0.009497 
 1_2390 360.899994 0.05070349067304326 
 1_2399 353.457001 0.6916126398503827 
 1_240 363.079987 0.0 
 1_2403 359.579987 0.0006745894439806192 
 1_2405 353.420013 0.08361892242888515 
 1_241 364.440002 0.011343 
 1_2413 362.040009 0.02188145276686287 
 1_2414 362.049988 0.016751 
 1_242 363.970001 0.016289 
 1_243 363.929993 0.0 
 1_2434 359.350006 0.017278 
 1_244 364.0 0.0 
 1_2442 359.75 0.0 
 1_2448 356.119995 0.0 
 1_245 364.019989 0.0 
 1_2452 359.359985 0.0 
 1_246 364.73999 0.0 
 1_2462 355.075989 0.08827811830495552 
 1_2476 356.019989 0.0 
 1_248 363.910004 0.0 
 1_2489 361.779999 0.005053889371069579 
 1_249 363.640015 0.011079 
 1_2491 361.769989 0.00710398969364133 
 1_2495 363.23999 0.011607 
 1_250 363.690002 0.0 
 1_2505 355.910004 0.3645588393306485 
 1_2508 360.290009 0.029576400160768592 
 1_251 363.899994 0.0 
 1_2515 357.730011 0.0 
 1_252 363.559998 0.0 
 1_2521 357.600006 0.003405962469123738 
 1_2523 357.519989 0.003166 
 1_253 363.540009 0.014575 
 1_2531 357.950012 0.012596 
 1_2532 357.970001 0.0 
 1_2538 361.649994 0.16115512093528908 
 1_2539 361.630005 0.0 
 1_2540 361.640015 0.0 
 1_2541 361.559998 0.0 
 1_2542 361.670013 0.0030262931252842016 
 1_2543 357.609985 0.0 
 1_2545 357.570007 0.0 
 1_2548 357.619995 0.0 
 1_2549 355.01001 0.013748603230920036 
 1_255 363.079987 0.0 
 1_2550 357.600006 0.17383323353584162 
 1_2551 357.559998 0.0 
 1_256 363.109985 0.013981 
 1_2562 359.838989 0.005606 
 1_2563 359.807007 0.032578 
 1_257 363.109985 0.0 
 1_258 363.119995 0.0 
 1_259 363.140015 0.011871 
 1_2590 358.988007 0.14488915466128843 
 1_2594 363.519989 0.027680213768291072 
 1_2595 357.130005 0.040168766464158394 
 1_2596 363.160004 0.8277080201943988 
 1_2597 363.140015 0.134864 
 1_2598 362.013 0.0031560574268326047 
 1_2599 357.200012 0.0 
 1_2600 357.100006 0.0 
 1_2601 357.75 0.3791463803603077 
 1_2603 357.140015 0.18523850116983637 
 1_2607 352.380005 0.0 
 1_2608 352.390015 0.0 
 1_2609 355.01001 0.0 
 1_261 363.529999 0.0 
 1_262 363.089996 0.0 
 1_2620 362.070007 0.009793053666665923 
 1_2623 361.829987 0.11782365320804988 
 1_2625 363.079987 0.062915 
 1_2626 363.079987 0.04600652558862559 
 1_2633 363.26001 0.4933679425731674 
 1_2634 363.26001 0.0 
 1_2638 363.399994 0.0 
 1_264 364.73999 0.4847678482447985 
 1_2640 363.369995 0.0 
 1_2641 363.410004 0.10177894901614674 
 1_2642 362.950012 0.30819477845320215 
 1_2645 362.920013 0.14163822154679787 
 1_2647 362.869995 0.04521888646108575 
 1_265 365.049988 0.0 
 1_2651 358.779999 0.0 
 1_2652 358.779999 0.07683778653126302 
 1_2659 352.75 0.1119970262594144 
 1_266 365.040009 0.3989864593005038 
 1_2660 359.839996 0.0 
 1_2663 352.53299 0.0 
 1_2664 356.149994 0.31199421448352915 
 1_2665 363.609985 0.015564 
 1_2668 357.859009 0.092262 
 1_267 363.059998 0.159331 
 1_2670 359.570007 0.033304 
 1_2674 358.809998 0.040228 
 1_2675 358.790009 0.58628 
 1_2676 363.690002 0.0 
 1_2677 358.714996 0.4882548944142126 
 1_268 363.059998 0.010288 
 1_2680 352.78299 0.03493825650738873 
 1_2684 351.720001 0.119498 
 1_2685 352.420013 0.0 
 1_2689 356.019989 0.13108639719703064 
 1_269 362.570007 0.0 
 1_2690 356.019989 0.0 
 1_2692 358.299988 0.029109282043217572 
 1_2693 352.410004 0.0 
 1_2695 358.299988 0.0 
 1_2696 363.600006 0.0 
 1_2698 360.149994 0.3176468854899171 
 1_2699 360.549988 0.0 
 1_270 362.450012 0.06054 
 1_2700 360.100006 0.0 
 1_2702 357.859985 0.0 
 1_2705 363.540009 0.0 
 1_2706 357.880005 0.12917955425405972 
 1_271 362.450012 0.0 
 1_2710 363.540009 0.002825966813847871 
 1_2714 352.730011 0.006991 
 1_2716 352.769989 0.006727 
 1_2717 356.290009 0.015762 
 1_2718 356.350006 0.094899 
 1_2719 356.26001 0.0 
 1_272 362.279999 0.0 
 1_2720 356.670013 0.11291078551647081 
 1_2722 357.899994 0.02368439324892362 
 1_2723 357.890015 0.0 
 1_2725 352.899994 0.0 
 1_2727 352.885986 0.14635911929801915 
 1_2728 351.769989 0.2517634252594148 
 1_273 362.350006 0.0 
 1_2737 359.390015 0.17490852635924387 
 1_274 362.290009 0.0 
 1_2747 351.970001 0.31995630772025824 
 1_2748 351.950012 0.39965279750351945 
 1_275 362.350006 0.0 
 1_2751 359.397003 0.485856960858458 
 1_2757 353.800995 0.4006937193183878 
 1_276 362.320007 0.027369 
 1_2760 356.470001 1.1949212659925208 
 1_2765 356.450012 0.21900873400747903 
 1_2767 355.143005 0.03855107733600772 
 1_277 362.320007 0.0 
 1_2773 358.380005 0.4388985942334488 
 1_2775 351.880005 0.0 
 1_2776 351.880005 0.001978 
 1_2779 351.890015 0.25116760443394953 
 1_2781 352.029999 0.0 
 1_2785 352.109985 0.0 
 1_2786 352.140015 0.0 
 1_2788 358.440002 0.089492 
 1_2789 358.410004 0.0 
 1_279 362.829987 0.039870300986815724 
 1_2791 352.049988 1.371617574740585 
 1_2792 354.790009 0.07369345478255328 
 1_2794 354.76001 0.7834617565517045 
 1_280 362.269989 0.0 
 1_2804 356.829987 0.2167020544867419 
 1_2805 355.130005 0.0 
 1_2806 355.079987 0.9482977623293223 
 1_2808 356.829987 0.03218411021587757 
 1_2810 351.660004 0.211166 
 1_2811 351.600006 0.0 
 1_2812 351.570007 0.0 
 1_2813 351.609985 0.21824325728217073 
 1_2814 352.761993 0.080853 
 1_2815 352.755005 0.0 
 1_2821 357.730011 0.156165 
 1_2822 357.709991 0.0 
 1_2823 356.0 0.0995820560520681 
 1_2824 355.980011 0.24738338969387216 
 1_2826 362.274994 0.12829956319626376 
 1_2828 362.282013 0.0 
 1_283 362.863007 0.22626872570105172 
 1_2830 362.282013 0.0 
 1_2832 362.282013 0.0 
 1_2834 352.980011 0.46064333212916764 
 1_2838 356.769989 0.0 
 1_2839 352.399994 0.4754378947762222 
 1_284 362.23999 0.006925 
 1_2842 352.399994 0.0 
 1_2844 356.73999 0.053616 
 1_2845 352.470001 0.2532215961731128 
 1_2846 352.459991 0.09071982611511939 
 1_2849 357.520996 0.00277 
 1_285 361.470001 0.0 
 1_2856 351.019989 0.3419200286617514 
 1_2858 358.752014 0.0 
 1_286 363.890015 0.0 
 1_2860 357.888 0.0 
 1_2861 358.70401 0.13549168460946032 
 1_2866 356.279999 0.7380230012336196 
 1_2867 362.540009 0.0 
 1_2870 356.630005 0.0 
 1_2873 362.540009 0.12461963304412796 
 1_2874 356.630005 0.0 
 1_2875 356.570007 0.043064 
 1_2885 351.670013 0.06142317388488061 
 1_2887 357.480011 0.0007348316615507122 
 1_2891 352.339996 0.284105 
 1_2894 356.070007 0.041877 
 1_2895 356.049988 0.150758 
 1_2898 351.440002 0.5272404163995716 
 1_2899 355.880005 0.055858 
 1_290 363.820007 0.21849095708004407 
 1_2900 359.779999 0.0 
 1_2903 356.980011 0.0 
 1_2904 356.970001 0.0 
 1_2908 350.019989 0.0 
 1_2909 350.079987 0.8418750066288205 
 1_291 363.350006 0.0 
 1_2913 357.089996 0.1081451683384493 
 1_2914 360.890015 0.0 
 1_2917 350.23999 0.25487416595653317 
 1_2918 358.005005 0.045800315390539706 
 1_2919 358.005005 0.003825 
 1_292 363.0 0.0 
 1_2927 349.959991 0.0 
 1_293 363.339996 0.03837087353604304 
 1_2930 349.950012 0.0 
 1_2931 349.880005 0.028706993371179525 
 1_2935 356.190002 0.0 
 1_2936 356.190002 0.05665 
 1_2944 357.899994 0.005492701204120812 
 1_2946 361.230011 0.0 
 1_2947 351.321014 0.08395445507695465 
 1_2948 350.589996 0.29055945082773826 
 1_2949 350.779999 0.0 
 1_2950 362.799988 0.16703120811916433 
 1_2951 362.769989 0.071488 
 1_2952 362.670013 0.0 
 1_2953 362.640015 0.047483 
 1_2956 363.001007 0.022646435161832238 
 1_2957 363.122986 0.10680939556371091 
 1_2958 356.480011 0.028536298795879187 
 1_2959 361.51001 0.0 
 1_296 363.079987 0.036733 
 1_2963 351.809998 0.3408859982585603 
 1_2966 361.51001 0.0 
 1_2968 358.429993 0.0 
 1_2969 358.26001 0.0 
 1_2972 361.38501 0.049263 
 1_2974 351.200012 0.201538 
 1_2978 351.910004 0.1375547342945012 
 1_2991 351.46701 0.16407654492304533 
 1_2993 349.609985 0.0010561085998069782 
 1_2994 349.690002 0.1255393590297193 
 1_3007 352.859985 0.149241 
 1_3008 352.859985 0.079468 
 1_3014 351.450012 0.9252522513264718 
 1_3015 352.526001 0.02163980844248253 
 1_3019 352.519989 0.3865151046977106 
 1_3024 348.895996 0.0013743583546954128 
 1_3026 349.179993 0.071686 
 1_3027 352.350006 0.0 
 1_3028 349.179993 0.3696558075776618 
 1_303 361.04599 0.019059 
 1_3030 352.220001 0.0 
 1_3033 352.309998 0.0 
 1_3034 349.072998 0.0 
 1_3035 352.26001 0.108089 
 1_3036 355.147003 0.25155494525571054 
 1_3037 352.429993 0.0 
 1_3038 352.429993 0.0 
 1_3041 351.660004 0.0 
 1_3056 350.619995 0.0 
 1_3060 353.529999 0.0 
 1_3065 353.549988 0.0 
 1_3070 350.320007 0.0 
 1_3071 353.330994 1.3668418972442382 
 1_3072 350.209991 0.0 
 1_3078 350.890015 0.0 
 1_3080 351.320007 0.067003 
 1_3083 350.86499 0.091668 
 1_3094 348.856995 0.009085192422338179 
 1_3095 353.94101 0.0 
 1_3097 353.94101 0.000594 
 1_3100 351.48999 0.0 
 1_3104 351.48999 0.0 
 1_3108 354.890015 0.264584 
 1_311 360.993011 0.004155 
 1_3110 354.880005 0.0 
 1_3118 351.410004 0.2127338393664562 
 1_3125 351.042999 0.0870695195184597 
 1_3126 351.002014 0.0 
 1_3128 351.959991 0.07572575364270853 
 1_3129 351.940002 0.0 
 1_3130 351.970001 0.0 
 1_3136 352.070007 0.0 
 1_314 361.03299 0.02572 
 1_3142 350.799988 0.5473948180952566 
 1_3144 350.649994 0.061464 
 1_3146 348.205994 0.3653903083214962 
 1_3162 350.609985 0.182413 
 1_3163 350.619995 0.344777 
 1_3169 350.559998 0.0 
 1_3171 350.700012 0.14549793177615447 
 1_3193 350.859985 0.189601 
 1_3194 350.859985 0.052297 
 1_3214 350.480011 0.06421706822384553 
 1_3220 350.480011 0.0 
 1_3221 350.48999 0.274345 
 1_3229 353.529999 0.29595348757080453 
 1_3238 350.23999 0.0 
 1_3241 350.609985 0.0 
 1_3247 350.410004 0.07838943119920537 
 1_3250 350.450012 0.1551985688007946 
 1_3253 348.600006 0.5088310639073649 
 1_3254 348.619995 0.0 
 1_3255 348.640015 0.015646356910230187 
 1_3271 350.329987 0.007122 
 1_3273 350.320007 0.0004172979706079478 
 1_3307 347.940002 0.258265397872912 
 1_3308 347.670013 0.167838 
 1_331 361.73999 0.0 
 1_3320 350.029999 0.143569 
 1_3321 348.480011 0.0 
 1_3322 348.480011 0.16984204344840648 
 1_3323 350.670013 0.04557 
 1_3324 354.768005 0.016789203747160798 
 1_3329 350.690002 0.036799 
 1_333 361.519989 0.0 
 1_3330 353.890015 0.11239046172837941 
 1_3331 353.869995 0.0 
 1_3335 350.190002 0.187293 
 1_3337 350.149994 0.0 
 1_334 361.589996 0.0 
 1_3347 349.709991 0.07234255419593048 
 1_3353 350.231995 0.0 
 1_3354 350.559998 0.19393220644985748 
 1_3355 350.630005 0.161969 
 1_3356 350.329987 0.114684 
 1_337 360.71701 0.026369757090417188 
 1_3371 349.459991 0.7655159492001365 
 1_3372 349.420013 0.07138597505979888 
 1_3380 350.140015 0.643984 
 1_3385 349.119995 0.30444901124819307 
 1_3386 350.157013 0.0 
 1_3396 349.420013 0.0 
 1_3400 355.286011 0.0459 
 1_3402 349.51001 0.0 
 1_3403 349.51001 0.0 
 1_3404 355.290985 0.05441376555593026 
 1_3405 349.570007 0.0 
 1_3408 348.279999 0.04107920388576184 
 1_3410 348.209991 0.00011595817968834332 
 1_3411 349.579987 0.0 
 1_3413 349.619995 0.0 
 1_3414 349.619995 0.0 
 1_3415 349.600006 0.0 
 1_3419 349.959991 0.37750438585850765 
 1_3420 349.809998 0.0 
 1_3421 349.690002 0.0 
 1_3422 349.690002 0.0 
 1_3423 350.029999 0.05993270039723718 
 1_3424 349.959991 0.0 
 1_3425 350.179993 0.0 
 1_3427 349.700012 0.0 
 1_3428 350.049988 0.594325 
 1_3429 349.019989 0.0 
 1_343 360.899994 0.0 
 1_3430 350.26001 0.24644900298467406 
 1_344 361.859985 0.1350296797098901 
 1_3447 349.834991 0.039399726183838656 
 1_3451 348.299988 0.037261 
 1_3452 349.700012 0.2142155836004284 
 1_3454 349.700012 0.047747 
 1_3460 349.5 1.2890126023783337e-05 
 1_3464 350.160004 0.05938658202817533 
 1_3466 350.089996 0.07274469178798602 
 1_3467 349.309998 0.051637 
 1_3469 349.859985 0.008375 
 1_3498 349.679993 0.18537547732696621 
 1_35 379.549988 0.023749709209036983 
 1_3523 349.76001 0.017806 
 1_3533 347.286987 1.1052974107440194 
 1_354 363.01001 0.004194686187823609 
 1_3549 347.507996 0.0 
 1_3555 347.610992 0.06459679895640831 
 1_356 361.959991 0.011475 
 1_3567 347.29599 0.04623 
 1_357 361.994995 0.012332 
 1_3578 345.380005 1.975018684575654 
 1_3579 348.5 0.052825 
 1_3588 348.940002 0.3917096949110138 
 1_3590 347.679993 0.0 
 1_3591 347.649994 0.0033784929973884673 
 1_3597 349.01001 0.054296700118294045 
 1_3599 346.109985 0.0 
 1_3605 347.98999 0.6287832010435916 
 1_3606 348.0 0.0 
 1_3609 349.410004 0.05197168612521639 
 1_361 362.049988 0.12930768291177602 
 1_3611 348.51001 0.0 
 1_3612 348.529999 0.4959184294829987 
 1_362 361.812012 0.013585 
 1_3623 348.600006 0.0 
 1_3628 345.997986 0.04953757176908754 
 1_3629 348.48999 0.0 
 1_363 361.812012 0.0 
 1_3630 348.540009 0.0 
 1_3631 348.540009 0.0 
 1_3634 349.454987 0.0 
 1_3636 348.579987 0.0 
 1_3638 348.48999 0.0 
 1_364 361.808014 0.0 
 1_3641 348.880005 0.0 
 1_3643 348.630005 0.040717068974882066 
 1_3647 348.700012 0.190261 
 1_365 362.029999 0.013783 
 1_3651 349.484009 0.3522147204852451 
 1_3657 345.799988 0.0 
 1_366 361.882996 0.019521 
 1_3662 349.25 0.4381676120184985 
 1_3664 349.26001 0.0 
 1_3665 349.019989 0.0 
 1_3666 349.019989 0.0 
 1_3668 349.140015 0.0 
 1_3669 349.130005 0.0 
 1_367 362.209991 0.009167 
 1_368 362.209991 0.023478 
 1_3681 349.470001 0.265376 
 1_3682 345.85199 0.7571758158426298 
 1_3685 349.040009 0.7360917230509189 
 1_3686 349.049988 0.0034019310251179355 
 1_3692 349.096985 0.0 
 1_3697 345.980011 0.0 
 1_3698 348.470001 0.06364 
 1_3699 349.059998 0.13239699946861427 
 1_3702 349.079987 0.0 
 1_3710 348.890015 0.6780872934992687 
 1_3711 348.880005 0.1119997070321169 
 1_3712 348.609985 0.0 
 1_3713 348.609985 0.6536734297754756 
 1_3723 345.670013 0.0022564657412014817 
 1_3741 345.470001 0.47712965605767627 
 1_3762 349.355011 0.27470162914654617 
 1_3775 350.619995 0.0017661814003443188 
 1_3777 350.640015 0.0 
 1_3778 350.630005 0.12744955013943468 
 1_3780 348.179993 0.03023528966492639 
 1_3793 348.190002 0.00010528055959799793 
 1_3795 348.23999 0.5810010107497837 
 1_381 364.720001 0.04719022677241495 
 1_382 362.019989 0.024071 
 1_383 364.440002 0.04194354069949611 
 1_3847 348.410004 0.3074393249803702 
 1_386 364.399994 0.0 
 1_3862 349.679993 0.3641768192021097 
 1_3865 349.649994 0.3986461807978904 
 1_387 364.399994 0.032117 
 1_3876 349.450012 0.0 
 1_3878 348.970001 0.2772777221006016 
 1_3949 348.200012 0.19214399287493353 
 1_3952 347.920013 5.8334988664109864e-05 
 1_3992 346.049988 0.8088396014929982 
 1_3993 346.049988 0.0 
 1_3994 346.049988 0.0 
 1_4027 347.441986 0.0 
 1_4030 347.450989 0.0 
 1_4032 347.46701 0.032381 
 1_4038 346.950012 0.0 
 1_4049 346.950012 0.0 
 1_4050 346.839996 0.0 
 1_4078 347.709991 0.033502 
 1_4081 347.73999 0.038316 
 1_4115 346.579987 0.1941837952724022 
 1_4116 346.380005 0.0 
 1_420 378.848999 0.03505828649944132 
 1_434 362.279999 0.11969014639316942 
 1_436 362.272003 0.0 
 1_438 377.937988 0.02528471350055868 
 1_441 377.683014 0.08186523587348553 
 1_450 378.049011 0.18837841312406378 
 1_452 377.798004 0.3019446293629465 
 1_454 363.290009 0.2294040355972766 
 1_457 361.798004 0.0 
 1_458 377.032013 0.045966 
 1_459 361.82901 0.0 
 1_460 366.170013 1.037604710829337 
 1_462 361.583008 0.070103 
 1_485 363.970001 0.028687 
 1_486 364.070007 0.41690490400874386 
 1_488 362.815002 0.081182 
 1_491 364.160004 0.0 
 1_493 362.815002 0.042537 
 1_505 376.653015 0.08830938886079204 
 1_519 376.238007 0.26556043932309914 
 1_526 361.959991 0.0 
 1_527 361.950012 0.01364753691536604 
 1_529 361.950012 0.013786463084633964 
 1_530 361.959991 0.0016890738679580684 
 1_544 361.480011 0.0 
 1_548 361.919006 0.0 
 1_549 361.919006 0.0 
 1_553 361.968994 0.0 
 1_554 361.968994 0.0 
 1_555 375.355011 0.031194 
 1_559 372.365997 0.042009 
 1_563 360.890015 0.042137453445857787 
 1_565 363.497986 0.08995500773351105 
 1_566 363.497986 0.04589303518644487 
 1_570 366.820007 0.0 
 1_571 366.809998 0.1714495181827054 
 1_58 374.23999 0.00031904952045796835 
 1_583 362.670013 0.005869 
 1_585 362.720001 0.011145 
 1_586 362.600006 0.007324544927531069 
 1_587 375.959991 0.13478611603404378 
 1_588 375.959991 0.2007156845281234 
 1_591 377.768005 0.11397129138530408 
 1_593 361.457001 0.002267926132041932 
 1_596 361.519989 0.0 
 1_598 361.51001 0.0 
 1_605 370.440002 0.086524 
 1_606 370.440002 0.008441 
 1_619 363.720001 0.061439548898427065 
 1_621 363.769989 0.0 
 1_622 363.779999 0.0 
 1_623 363.75 0.0 
 1_624 363.829987 0.102088 
 1_626 363.73999 0.0 
 1_628 363.799988 0.0 
 1_629 363.820007 0.0 
 1_631 363.829987 0.0 
 1_633 363.829987 0.0 
 1_634 363.880005 0.028358 
 1_635 363.119995 0.3185251295703734 
 1_636 363.160004 0.39341778524651216 
 1_640 363.600006 0.016355 
 1_645 361.68399 0.355593 
 1_646 361.65799 0.14047 
 1_670 360.660004 0.007130833345149301 
 1_680 360.660004 0.05850773744962671 